$ File information
$
$	- Created on  : 17-Mar-2021 20:55:06
$	- Created by  : hg174 (CHARLES-PC)
$	- Matlab ver  : 9.10.0.1602886 (R2021a)
$	- ALENA ver   : v0
$
$  Summary for component A320Wing_right:
$
$	* CoordSys         : 5       
$	* Nodes            : 77      
$	* PointMasses      : 10      
$	* Beams            : 24      
$	* BeamProps        : 24      
$	* BushProps        : 1       
$	* Materials        : 1       
$	* RigidBars        : 25      
$	* AeroPanels       : 5       
$	* AeroControlSurf  : 1       
$	* AeroProps        : 1       
$	* StructuralSets   : 5       
$	* AeroSets         : 5       
$	* Splines          : 5       
$	* Connections      : 3       
$
$.1.....2...............3...............4...............5...............6.......
CORD2R* 1002            0               15.000000       0.0000000       
*       0.0000000       15.000000       0.0000000       1.0000000       
*       15.231716       0.97278357      0.0000000       
CORD2R* 1003            0               16.257192       5.2779160       
*       0.0000000       16.257192       5.2779160       1.0000000       
*       16.625844       6.2074835       0.0000000       
CORD2R* 1004            0               19.744364       12.787500       
*       0.0000000       19.744364       12.787500       2.2129483       
*       26.158595       10.422603       0.0000000       
CORD2R* 1005            0               15.000000       0.0000000       
*       0.0000000       15.000000       0.0000000       1.0000000       
*       15.972784       -0.23171561     0.0000000       
CORD2R* 1006            0               16.257192       5.2779160       
*       0.0000000       16.257192       5.2779160       1.0000000       
*       17.186759       4.9092640       0.0000000       
$.1.....2...............3...............4...............5...............6.......
GRID*   1357            0               15.000000       0.0000000       
*       0.0000000       1002            
GRID*   1358            0               15.170369       0.73071429      
*       0.0000000       1002            
GRID*   1359            0               15.340738       1.4614286       
*       0.0000000       1002            
GRID*   1360            0               15.511107       2.1921429       
*       0.0000000       1002            
GRID*   1361            0               15.681475       2.9228571       
*       0.0000000       1002            
GRID*   1362            0               15.851844       3.6535714       
*       0.0000000       1002            
GRID*   1363            0               16.022213       4.3842857       
*       0.0000000       1002            
GRID*   1364            0               16.192582       5.1150000       
*       0.0000000       1002            
GRID*   1365            0               16.471008       5.8170588       
*       0.0000000       1003            
GRID*   1366            0               16.749433       6.5191176       
*       0.0000000       1003            
GRID*   1367            0               17.027859       7.2211765       
*       0.0000000       1003            
GRID*   1368            0               17.306285       7.9232353       
*       0.0000000       1003            
GRID*   1369            0               17.584710       8.6252941       
*       0.0000000       1003            
GRID*   1370            0               17.863136       9.3273529       
*       0.0000000       1003            
GRID*   1371            0               18.141562       10.029412       
*       0.0000000       1003            
GRID*   1372            0               18.419987       10.731471       
*       0.0000000       1003            
GRID*   1373            0               18.698413       11.433529       
*       0.0000000       1003            
GRID*   1374            0               18.976839       12.135588       
*       0.0000000       1003            
GRID*   1375            0               19.255264       12.837647       
*       0.0000000       1003            
GRID*   1376            0               19.533690       13.539706       
*       0.0000000       1003            
$ ... 114 like lines cut
$.1.....2...............3...............4...............5...............6.......
CONM2*  2472            1359            0               100.00000       
*       0.070054684     0.30046551      0.0000000                       
*       0.10000000      0.10000000      0.10000000      0.10000000      
*       0.10000000      0.10000000      
CONM2*  2473            1362            0               100.00000       
*       -0.030259465    -0.12978327     0.0000000                       
*       0.10000000      0.10000000      0.10000000      0.10000000      
*       0.10000000      0.10000000      
CONM2*  2474            1364            0               100.00000       
*       0.064609985     0.16291604      0.0000000                       
*       0.10000000      0.10000000      0.10000000      0.10000000      
*       0.10000000      0.10000000      
CONM2*  2475            1367            0               100.00000       
*       -0.10372040     -0.26153415     0.0000000                       
*       0.10000000      0.10000000      0.10000000      0.10000000      
*       0.10000000      0.10000000      
CONM2*  2476            1369            0               100.00000       
*       0.0063748926    0.016074486     0.0000000                       
*       0.10000000      0.10000000      0.10000000      0.10000000      
*       0.10000000      0.10000000      
CONM2*  2477            1371            0               100.00000       
*       0.11647019      0.29368312      0.0000000                       
*       0.10000000      0.10000000      0.10000000      0.10000000      
*       0.10000000      0.10000000      
CONM2*  2478            1374            0               100.00000       
*       -0.051860200    -0.13076707     0.0000000                       
*       0.10000000      0.10000000      0.10000000      0.10000000      
*       0.10000000      0.10000000      
CONM2*  2479            1376            0               100.00000       
*       0.058235093     0.14684156      0.0000000                       
*       0.10000000      0.10000000      0.10000000      0.10000000      
*       0.10000000      0.10000000      
CONM2*  2480            1379            0               100.00000       
*       -0.11009529     -0.27760863     0.0000000                       
*       0.10000000      0.10000000      0.10000000      0.10000000      
*       0.10000000      0.10000000      
CONM2*  2481            1381            0               100.00000       
*       0.0000000       0.0000000       0.0000000                       
*       0.10000000      0.10000000      0.10000000      0.10000000      
*       0.10000000      0.10000000      
$.1.....2.......3.......4.......5.......6.......7.......8.......9.......10......
CBEAM   1566    1786    1357    1358    0.00    1.00    0.00            
                        0.00    0.00    0.00    0.00    0.00    0.00    
CBEAM   1567    1787    1358    1359    0.00    1.00    0.00            
                        0.00    0.00    0.00    0.00    0.00    0.00    
CBEAM   1568    1788    1359    1360    0.00    1.00    0.00            
                        0.00    0.00    0.00    0.00    0.00    0.00    
CBEAM   1569    1789    1360    1361    0.00    1.00    0.00            
                        0.00    0.00    0.00    0.00    0.00    0.00    
CBEAM   1570    1790    1361    1362    0.00    1.00    0.00            
                        0.00    0.00    0.00    0.00    0.00    0.00    
CBEAM   1571    1791    1362    1363    0.00    1.00    0.00            
                        0.00    0.00    0.00    0.00    0.00    0.00    
CBEAM   1572    1792    1363    1364    0.00    1.00    0.00            
                        0.00    0.00    0.00    0.00    0.00    0.00    
CBEAM   1573    1793    1364    1365    0.00    1.00    0.00            
                        0.00    0.00    0.00    0.00    0.00    0.00    
CBEAM   1574    1794    1365    1366    0.00    1.00    0.00            
                        0.00    0.00    0.00    0.00    0.00    0.00    
CBEAM   1575    1795    1366    1367    0.00    1.00    0.00            
                        0.00    0.00    0.00    0.00    0.00    0.00    
CBEAM   1576    1796    1367    1368    0.00    1.00    0.00            
                        0.00    0.00    0.00    0.00    0.00    0.00    
CBEAM   1577    1797    1368    1369    0.00    1.00    0.00            
                        0.00    0.00    0.00    0.00    0.00    0.00    
CBEAM   1578    1798    1369    1370    0.00    1.00    0.00            
                        0.00    0.00    0.00    0.00    0.00    0.00    
CBEAM   1579    1799    1370    1371    0.00    1.00    0.00            
                        0.00    0.00    0.00    0.00    0.00    0.00    
CBEAM   1580    1800    1371    1372    0.00    1.00    0.00            
                        0.00    0.00    0.00    0.00    0.00    0.00    
CBEAM   1581    1801    1372    1373    0.00    1.00    0.00            
                        0.00    0.00    0.00    0.00    0.00    0.00    
CBEAM   1582    1802    1373    1374    0.00    1.00    0.00            
                        0.00    0.00    0.00    0.00    0.00    0.00    
CBEAM   1583    1803    1374    1375    0.00    1.00    0.00            
                        0.00    0.00    0.00    0.00    0.00    0.00    
CBEAM   1584    1804    1375    1376    0.00    1.00    0.00            
                        0.00    0.00    0.00    0.00    0.00    0.00    
CBEAM   1585    1805    1376    1377    0.00    1.00    0.00            
                        0.00    0.00    0.00    0.00    0.00    0.00    
$ ... 8 like lines cut
$.1.....2...............3...............4...............5...............6.......
PBEAM*  1786            1829            0.0057920000    5.2089131e-05   
*       0.0038396877    0.0000000       0.00019026787   16.275520       
*       0.0000000       0.0000000       0.0000000       0.0000000       
*       0.0000000       0.0000000       0.0000000       0.0000000       
*       YES             1.0000000       0.0057920000    5.2089131e-05   
*       0.0038396877    0.0000000       0.00019026787   16.275520       
*       0.0000000       0.0000000       0.0000000       0.0000000       
*       0.0000000       0.0000000       0.0000000       0.0000000       
*       0.0000000       0.0000000       0.0000000       0.0000000       
*       10.935893       10.935893       0.0000000       0.0000000       
*       0.0000000       0.0000000       0.0000000       0.0000000       
*       0.0000000       0.0000000       0.0000000       0.0000000       
PBEAM*  1787            1829            0.0057920000    5.2089131e-05   
*       0.0038396877    0.0000000       0.00019026787   16.275520       
*       0.0000000       0.0000000       0.0000000       0.0000000       
*       0.0000000       0.0000000       0.0000000       0.0000000       
*       YES             1.0000000       0.0057920000    5.2089131e-05   
*       0.0038396877    0.0000000       0.00019026787   16.275520       
*       0.0000000       0.0000000       0.0000000       0.0000000       
*       0.0000000       0.0000000       0.0000000       0.0000000       
*       0.0000000       0.0000000       0.0000000       0.0000000       
*       10.935893       10.935893       0.0000000       0.0000000       
*       0.0000000       0.0000000       0.0000000       0.0000000       
*       0.0000000       0.0000000       0.0000000       0.0000000       
PBEAM*  1788            1829            0.0057920000    5.2089131e-05   
*       0.0038396877    0.0000000       0.00019026787   16.275520       
*       0.0000000       0.0000000       0.0000000       0.0000000       
*       0.0000000       0.0000000       0.0000000       0.0000000       
*       YES             1.0000000       0.0057920000    5.2089131e-05   
*       0.0038396877    0.0000000       0.00019026787   16.275520       
*       0.0000000       0.0000000       0.0000000       0.0000000       
*       0.0000000       0.0000000       0.0000000       0.0000000       
*       0.0000000       0.0000000       0.0000000       0.0000000       
*       10.935893       10.935893       0.0000000       0.0000000       
*       0.0000000       0.0000000       0.0000000       0.0000000       
*       0.0000000       0.0000000       0.0000000       0.0000000       
PBEAM*  1789            1829            0.0057920000    5.2089131e-05   
*       0.0038396877    0.0000000       0.00019026787   16.275520       
*       0.0000000       0.0000000       0.0000000       0.0000000       
*       0.0000000       0.0000000       0.0000000       0.0000000       
*       YES             1.0000000       0.0057920000    5.2089131e-05   
*       0.0038396877    0.0000000       0.00019026787   16.275520       
*       0.0000000       0.0000000       0.0000000       0.0000000       
*       0.0000000       0.0000000       0.0000000       0.0000000       
*       0.0000000       0.0000000       0.0000000       0.0000000       
*       10.935893       10.935893       0.0000000       0.0000000       
*       0.0000000       0.0000000       0.0000000       0.0000000       
*       0.0000000       0.0000000       0.0000000       0.0000000       
PBEAM*  1790            1829            0.0057920000    5.2089131e-05   
*       0.0038396877    0.0000000       0.00019026787   16.275520       
*       0.0000000       0.0000000       0.0000000       0.0000000       
*       0.0000000       0.0000000       0.0000000       0.0000000       
*       YES             1.0000000       0.0057920000    5.2089131e-05   
*       0.0038396877    0.0000000       0.00019026787   16.275520       
*       0.0000000       0.0000000       0.0000000       0.0000000       
*       0.0000000       0.0000000       0.0000000       0.0000000       
*       0.0000000       0.0000000       0.0000000       0.0000000       
*       10.935893       10.935893       0.0000000       0.0000000       
*       0.0000000       0.0000000       0.0000000       0.0000000       
*       0.0000000       0.0000000       0.0000000       0.0000000       
PBEAM*  1791            1829            0.0057920000    5.2089131e-05   
*       0.0038396877    0.0000000       0.00019026787   16.275520       
*       0.0000000       0.0000000       0.0000000       0.0000000       
*       0.0000000       0.0000000       0.0000000       0.0000000       
*       YES             1.0000000       0.0057920000    5.2089131e-05   
*       0.0038396877    0.0000000       0.00019026787   16.275520       
*       0.0000000       0.0000000       0.0000000       0.0000000       
*       0.0000000       0.0000000       0.0000000       0.0000000       
*       0.0000000       0.0000000       0.0000000       0.0000000       
*       10.935893       10.935893       0.0000000       0.0000000       
*       0.0000000       0.0000000       0.0000000       0.0000000       
*       0.0000000       0.0000000       0.0000000       0.0000000       
PBEAM*  1792            1829            0.0057920000    5.2089131e-05   
*       0.0038396877    0.0000000       0.00019026787   16.275520       
*       0.0000000       0.0000000       0.0000000       0.0000000       
*       0.0000000       0.0000000       0.0000000       0.0000000       
*       YES             1.0000000       0.0057920000    5.2089131e-05   
*       0.0038396877    0.0000000       0.00019026787   16.275520       
*       0.0000000       0.0000000       0.0000000       0.0000000       
*       0.0000000       0.0000000       0.0000000       0.0000000       
*       0.0000000       0.0000000       0.0000000       0.0000000       
*       10.935893       10.935893       0.0000000       0.0000000       
*       0.0000000       0.0000000       0.0000000       0.0000000       
*       0.0000000       0.0000000       0.0000000       0.0000000       
PBEAM*  1793            1829            0.0057920000    5.2089131e-05   
*       0.0038396877    0.0000000       0.00019026787   16.275520       
*       0.0000000       0.0000000       0.0000000       0.0000000       
*       0.0000000       0.0000000       0.0000000       0.0000000       
*       YES             1.0000000       0.0057920000    5.2089131e-05   
*       0.0038396877    0.0000000       0.00019026787   16.275520       
*       0.0000000       0.0000000       0.0000000       0.0000000       
*       0.0000000       0.0000000       0.0000000       0.0000000       
*       0.0000000       0.0000000       0.0000000       0.0000000       
*       10.935893       10.935893       0.0000000       0.0000000       
*       0.0000000       0.0000000       0.0000000       0.0000000       
*       0.0000000       0.0000000       0.0000000       0.0000000       
PBEAM*  1794            1829            0.0057920000    5.2089131e-05   
*       0.0038396877    0.0000000       0.00019026787   16.275520       
*       0.0000000       0.0000000       0.0000000       0.0000000       
*       0.0000000       0.0000000       0.0000000       0.0000000       
*       YES             1.0000000       0.0057920000    5.2089131e-05   
*       0.0038396877    0.0000000       0.00019026787   16.275520       
*       0.0000000       0.0000000       0.0000000       0.0000000       
*       0.0000000       0.0000000       0.0000000       0.0000000       
*       0.0000000       0.0000000       0.0000000       0.0000000       
*       10.935893       10.935893       0.0000000       0.0000000       
*       0.0000000       0.0000000       0.0000000       0.0000000       
*       0.0000000       0.0000000       0.0000000       0.0000000       
PBEAM*  1795            1829            0.0057920000    5.2089131e-05   
*       0.0038396877    0.0000000       0.00019026787   16.275520       
*       0.0000000       0.0000000       0.0000000       0.0000000       
*       0.0000000       0.0000000       0.0000000       0.0000000       
*       YES             1.0000000       0.0057920000    5.2089131e-05   
*       0.0038396877    0.0000000       0.00019026787   16.275520       
*       0.0000000       0.0000000       0.0000000       0.0000000       
*       0.0000000       0.0000000       0.0000000       0.0000000       
*       0.0000000       0.0000000       0.0000000       0.0000000       
*       10.935893       10.935893       0.0000000       0.0000000       
*       0.0000000       0.0000000       0.0000000       0.0000000       
*       0.0000000       0.0000000       0.0000000       0.0000000       
PBEAM*  1796            1829            0.0057920000    5.2089131e-05   
*       0.0038396877    0.0000000       0.00019026787   16.275520       
*       0.0000000       0.0000000       0.0000000       0.0000000       
*       0.0000000       0.0000000       0.0000000       0.0000000       
*       YES             1.0000000       0.0057920000    5.2089131e-05   
*       0.0038396877    0.0000000       0.00019026787   16.275520       
*       0.0000000       0.0000000       0.0000000       0.0000000       
*       0.0000000       0.0000000       0.0000000       0.0000000       
*       0.0000000       0.0000000       0.0000000       0.0000000       
*       10.935893       10.935893       0.0000000       0.0000000       
*       0.0000000       0.0000000       0.0000000       0.0000000       
*       0.0000000       0.0000000       0.0000000       0.0000000       
PBEAM*  1797            1829            0.0057920000    5.2089131e-05   
*       0.0038396877    0.0000000       0.00019026787   16.275520       
*       0.0000000       0.0000000       0.0000000       0.0000000       
*       0.0000000       0.0000000       0.0000000       0.0000000       
*       YES             1.0000000       0.0057920000    5.2089131e-05   
*       0.0038396877    0.0000000       0.00019026787   16.275520       
*       0.0000000       0.0000000       0.0000000       0.0000000       
*       0.0000000       0.0000000       0.0000000       0.0000000       
*       0.0000000       0.0000000       0.0000000       0.0000000       
*       10.935893       10.935893       0.0000000       0.0000000       
*       0.0000000       0.0000000       0.0000000       0.0000000       
*       0.0000000       0.0000000       0.0000000       0.0000000       
PBEAM*  1798            1829            0.0057920000    5.2089131e-05   
*       0.0038396877    0.0000000       0.00019026787   16.275520       
*       0.0000000       0.0000000       0.0000000       0.0000000       
*       0.0000000       0.0000000       0.0000000       0.0000000       
*       YES             1.0000000       0.0057920000    5.2089131e-05   
*       0.0038396877    0.0000000       0.00019026787   16.275520       
*       0.0000000       0.0000000       0.0000000       0.0000000       
*       0.0000000       0.0000000       0.0000000       0.0000000       
*       0.0000000       0.0000000       0.0000000       0.0000000       
*       10.935893       10.935893       0.0000000       0.0000000       
*       0.0000000       0.0000000       0.0000000       0.0000000       
*       0.0000000       0.0000000       0.0000000       0.0000000       
PBEAM*  1799            1829            0.0057920000    5.2089131e-05   
*       0.0038396877    0.0000000       0.00019026787   16.275520       
*       0.0000000       0.0000000       0.0000000       0.0000000       
*       0.0000000       0.0000000       0.0000000       0.0000000       
*       YES             1.0000000       0.0057920000    5.2089131e-05   
*       0.0038396877    0.0000000       0.00019026787   16.275520       
*       0.0000000       0.0000000       0.0000000       0.0000000       
*       0.0000000       0.0000000       0.0000000       0.0000000       
*       0.0000000       0.0000000       0.0000000       0.0000000       
*       10.935893       10.935893       0.0000000       0.0000000       
*       0.0000000       0.0000000       0.0000000       0.0000000       
*       0.0000000       0.0000000       0.0000000       0.0000000       
PBEAM*  1800            1829            0.0057920000    5.2089131e-05   
*       0.0038396877    0.0000000       0.00019026787   16.275520       
*       0.0000000       0.0000000       0.0000000       0.0000000       
*       0.0000000       0.0000000       0.0000000       0.0000000       
*       YES             1.0000000       0.0057920000    5.2089131e-05   
*       0.0038396877    0.0000000       0.00019026787   16.275520       
*       0.0000000       0.0000000       0.0000000       0.0000000       
*       0.0000000       0.0000000       0.0000000       0.0000000       
*       0.0000000       0.0000000       0.0000000       0.0000000       
*       10.935893       10.935893       0.0000000       0.0000000       
*       0.0000000       0.0000000       0.0000000       0.0000000       
*       0.0000000       0.0000000       0.0000000       0.0000000       
PBEAM*  1801            1829            0.0057920000    5.2089131e-05   
*       0.0038396877    0.0000000       0.00019026787   16.275520       
*       0.0000000       0.0000000       0.0000000       0.0000000       
*       0.0000000       0.0000000       0.0000000       0.0000000       
*       YES             1.0000000       0.0057920000    5.2089131e-05   
*       0.0038396877    0.0000000       0.00019026787   16.275520       
*       0.0000000       0.0000000       0.0000000       0.0000000       
*       0.0000000       0.0000000       0.0000000       0.0000000       
*       0.0000000       0.0000000       0.0000000       0.0000000       
*       10.935893       10.935893       0.0000000       0.0000000       
*       0.0000000       0.0000000       0.0000000       0.0000000       
*       0.0000000       0.0000000       0.0000000       0.0000000       
PBEAM*  1802            1829            0.0057920000    5.2089131e-05   
*       0.0038396877    0.0000000       0.00019026787   16.275520       
*       0.0000000       0.0000000       0.0000000       0.0000000       
*       0.0000000       0.0000000       0.0000000       0.0000000       
*       YES             1.0000000       0.0057920000    5.2089131e-05   
*       0.0038396877    0.0000000       0.00019026787   16.275520       
*       0.0000000       0.0000000       0.0000000       0.0000000       
*       0.0000000       0.0000000       0.0000000       0.0000000       
*       0.0000000       0.0000000       0.0000000       0.0000000       
*       10.935893       10.935893       0.0000000       0.0000000       
*       0.0000000       0.0000000       0.0000000       0.0000000       
*       0.0000000       0.0000000       0.0000000       0.0000000       
PBEAM*  1803            1829            0.0057920000    5.2089131e-05   
*       0.0038396877    0.0000000       0.00019026787   16.275520       
*       0.0000000       0.0000000       0.0000000       0.0000000       
*       0.0000000       0.0000000       0.0000000       0.0000000       
*       YES             1.0000000       0.0057920000    5.2089131e-05   
*       0.0038396877    0.0000000       0.00019026787   16.275520       
*       0.0000000       0.0000000       0.0000000       0.0000000       
*       0.0000000       0.0000000       0.0000000       0.0000000       
*       0.0000000       0.0000000       0.0000000       0.0000000       
*       10.935893       10.935893       0.0000000       0.0000000       
*       0.0000000       0.0000000       0.0000000       0.0000000       
*       0.0000000       0.0000000       0.0000000       0.0000000       
PBEAM*  1804            1829            0.0057920000    5.2089131e-05   
*       0.0038396877    0.0000000       0.00019026787   16.275520       
*       0.0000000       0.0000000       0.0000000       0.0000000       
*       0.0000000       0.0000000       0.0000000       0.0000000       
*       YES             1.0000000       0.0057920000    5.2089131e-05   
*       0.0038396877    0.0000000       0.00019026787   16.275520       
*       0.0000000       0.0000000       0.0000000       0.0000000       
*       0.0000000       0.0000000       0.0000000       0.0000000       
*       0.0000000       0.0000000       0.0000000       0.0000000       
*       10.935893       10.935893       0.0000000       0.0000000       
*       0.0000000       0.0000000       0.0000000       0.0000000       
*       0.0000000       0.0000000       0.0000000       0.0000000       
PBEAM*  1805            1829            0.0057920000    5.2089131e-05   
*       0.0038396877    0.0000000       0.00019026787   16.275520       
*       0.0000000       0.0000000       0.0000000       0.0000000       
*       0.0000000       0.0000000       0.0000000       0.0000000       
*       YES             1.0000000       0.0057920000    5.2089131e-05   
*       0.0038396877    0.0000000       0.00019026787   16.275520       
*       0.0000000       0.0000000       0.0000000       0.0000000       
*       0.0000000       0.0000000       0.0000000       0.0000000       
*       0.0000000       0.0000000       0.0000000       0.0000000       
*       10.935893       10.935893       0.0000000       0.0000000       
*       0.0000000       0.0000000       0.0000000       0.0000000       
*       0.0000000       0.0000000       0.0000000       0.0000000       
PBEAM*  1806            1829            0.0057920000    5.2089131e-05   
*       0.0038396877    0.0000000       0.00019026787   16.275520       
*       0.0000000       0.0000000       0.0000000       0.0000000       
*       0.0000000       0.0000000       0.0000000       0.0000000       
*       YES             1.0000000       0.0057920000    5.2089131e-05   
*       0.0038396877    0.0000000       0.00019026787   16.275520       
*       0.0000000       0.0000000       0.0000000       0.0000000       
*       0.0000000       0.0000000       0.0000000       0.0000000       
*       0.0000000       0.0000000       0.0000000       0.0000000       
*       10.935893       10.935893       0.0000000       0.0000000       
*       0.0000000       0.0000000       0.0000000       0.0000000       
*       0.0000000       0.0000000       0.0000000       0.0000000       
PBEAM*  1807            1829            0.0057920000    5.2089131e-05   
*       0.0038396877    0.0000000       0.00019026787   16.275520       
*       0.0000000       0.0000000       0.0000000       0.0000000       
*       0.0000000       0.0000000       0.0000000       0.0000000       
*       YES             1.0000000       0.0057920000    5.2089131e-05   
*       0.0038396877    0.0000000       0.00019026787   16.275520       
*       0.0000000       0.0000000       0.0000000       0.0000000       
*       0.0000000       0.0000000       0.0000000       0.0000000       
*       0.0000000       0.0000000       0.0000000       0.0000000       
*       10.935893       10.935893       0.0000000       0.0000000       
*       0.0000000       0.0000000       0.0000000       0.0000000       
*       0.0000000       0.0000000       0.0000000       0.0000000       
PBEAM*  1808            1829            0.0057920000    5.2089131e-05   
*       0.0038396877    0.0000000       0.00019026787   16.275520       
*       0.0000000       0.0000000       0.0000000       0.0000000       
*       0.0000000       0.0000000       0.0000000       0.0000000       
*       YES             1.0000000       0.0057920000    5.2089131e-05   
*       0.0038396877    0.0000000       0.00019026787   16.275520       
*       0.0000000       0.0000000       0.0000000       0.0000000       
*       0.0000000       0.0000000       0.0000000       0.0000000       
*       0.0000000       0.0000000       0.0000000       0.0000000       
*       10.935893       10.935893       0.0000000       0.0000000       
*       0.0000000       0.0000000       0.0000000       0.0000000       
*       0.0000000       0.0000000       0.0000000       0.0000000       
PBEAM*  1809            1829            0.0057920000    5.2089131e-05   
*       0.0038396877    0.0000000       0.00019026787   16.275520       
*       0.0000000       0.0000000       0.0000000       0.0000000       
*       0.0000000       0.0000000       0.0000000       0.0000000       
*       YES             1.0000000       0.0057920000    5.2089131e-05   
*       0.0038396877    0.0000000       0.00019026787   16.275520       
*       0.0000000       0.0000000       0.0000000       0.0000000       
*       0.0000000       0.0000000       0.0000000       0.0000000       
*       0.0000000       0.0000000       0.0000000       0.0000000       
*       10.935893       10.935893       0.0000000       0.0000000       
*       0.0000000       0.0000000       0.0000000       0.0000000       
*       0.0000000       0.0000000       0.0000000       0.0000000       
$.1.....2...............3...............4...............5...............6.......
PBUSH*  2500            K               1.0000e+11      1.0000e+11      
*       1.0000e+11      1.0000e+11      1.0000e+11      1.0000e+11      
$.1.....2...............3...............4...............5...............6.......
MAT1*   1829            7.6000000e+10   2.8507127e+10   0.33300000      
*       0.0000000       
$.1.....2.......3.......4.......5.......6.......7.......8.......9.......10......
RBE2    1901    1357    123456  1382    1407    
RBE2    1902    1358    123456  1383    1408    
RBE2    1903    1359    123456  1384    1409    
RBE2    1904    1360    123456  1385    1410    
RBE2    1905    1361    123456  1386    1411    
RBE2    1906    1362    123456  1387    1412    
RBE2    1907    1363    123456  1388    1413    
RBE2    1908    1364    123456  1389    1414    
RBE2    1909    1365    123456  1390    1415    
RBE2    1910    1366    123456  1391    1416    
RBE2    1911    1367    123456  1392    1417    
RBE2    1912    1368    123456  1393    1418    
RBE2    1913    1369    123456  1394    1419    
RBE2    1914    1370    123456  1395    1420    
RBE2    1915    1371    123456  1396    1421    
RBE2    1916    1372    123456  1397    1422    
RBE2    1917    1373    123456  1398    1423    
RBE2    1918    1374    123456  1399    1424    
RBE2    1919    1375    123456  1400    1425    
RBE2    1920    1376    123456  1401    1426    
$ ... 5 like lines cut
$.1.....2.......3.......4.......5.......6.......7.......8.......9.......10......
CAERO1  5602    1947    0       14      16                      1       
        12.0    0.00    0.00    6.00    14.4    5.12    0.00    3.61    
CAERO1  5826    1947    0       34      16                      1       
        14.4    5.12    0.00    3.61    18.0    12.8    0.00    2.54    
CAERO1  6370    1947    0       27      16                      1       
        18.0    12.8    0.00    1.78    19.3    15.7    0.00    1.50    
CAERO1  6802    1947    0       11      16                      1       
        19.3    15.7    0.00    2.14    20.0    17.1    0.00    1.95    
CAERO1  6978    1947    0       61      16                      1       
        19.7    12.8    0.00    0.763   20.8    15.7    0.00    0.642   
$.1.....2.......3.......4.......5.......6.......7.......8.......9.......10......
AESURF  1950    aileronR1004    2286                    1.000   LDW     
$.1.....2.......3.......4.......5.......6.......7.......8.......9.......10......
PAERO1  1947            
$.1.....2.......3.......4.......5.......6.......7.......8.......9.......10......
SET1    2112    1357    1358    1359    1360    1361    1362    1363    
        1364    1382    1383    1384    1385    1386    1387    1388    
        1389    1407    1408    1409    1410    1411    1412    1413    
        1414    

SET1    2113    1364    1365    1366    1367    1368    1369    1370    
        1371    1372    1373    1374    1389    1390    1391    1392    
        1393    1394    1395    1396    1397    1398    1399    1414    
        1415    1416    1417    1418    1419    1420    1421    1422    
        1423    1424    

SET1    2114    1375    1376    1377    1378    1379    1400    1401    
        1402    1403    1404    1425    1426    1427    1428    1429    
SET1    2115    1380    1381    1405    1406    1430    1431    
SET1    2116    1375    1376    1377    1378    1379    1400    1401    
        1402    1403    1404    1425    1426    1427    1428    1429    
$.1.....2.......3.......4.......5.......6.......7.......8.......9.......10......
AELIST  2282    5602    5603    5604    5605    5606    5607    5608    
        5609    5610    5611    5612    5613    5614    5615    5616    
        5617    5618    5619    5620    5621    5622    5623    5624    
        5625    5626    5627    5628    5629    5630    5631    5632    
        5633    5634    5635    5636    5637    5638    5639    5640    
        5641    5642    5643    5644    5645    5646    5647    5648    
        5649    5650    5651    5652    5653    5654    5655    5656    
        5657    5658    5659    5660    5661    5662    5663    5664    
        5665    5666    5667    5668    5669    5670    5671    5672    
        5673    5674    5675    5676    5677    5678    5679    5680    
        5681    5682    5683    5684    5685    5686    5687    5688    
        5689    5690    5691    5692    5693    5694    5695    5696    
        5697    5698    5699    5700    5701    5702    5703    5704    
        5705    5706    5707    5708    5709    5710    5711    5712    
        5713    5714    5715    5716    5717    5718    5719    5720    
        5721    5722    5723    5724    5725    5726    5727    5728    
        5729    5730    5731    5732    5733    5734    5735    5736    
        5737    5738    5739    5740    5741    5742    5743    5744    
        5745    5746    5747    5748    5749    5750    5751    5752    
        5753    5754    5755    5756    5757    5758    5759    5760    
        5761    5762    5763    5764    5765    5766    5767    5768    
$ ... 8 like lines cut

AELIST  2283    5826    5827    5828    5829    5830    5831    5832    
        5833    5834    5835    5836    5837    5838    5839    5840    
        5841    5842    5843    5844    5845    5846    5847    5848    
        5849    5850    5851    5852    5853    5854    5855    5856    
        5857    5858    5859    5860    5861    5862    5863    5864    
        5865    5866    5867    5868    5869    5870    5871    5872    
        5873    5874    5875    5876    5877    5878    5879    5880    
        5881    5882    5883    5884    5885    5886    5887    5888    
        5889    5890    5891    5892    5893    5894    5895    5896    
        5897    5898    5899    5900    5901    5902    5903    5904    
        5905    5906    5907    5908    5909    5910    5911    5912    
        5913    5914    5915    5916    5917    5918    5919    5920    
        5921    5922    5923    5924    5925    5926    5927    5928    
        5929    5930    5931    5932    5933    5934    5935    5936    
        5937    5938    5939    5940    5941    5942    5943    5944    
        5945    5946    5947    5948    5949    5950    5951    5952    
        5953    5954    5955    5956    5957    5958    5959    5960    
        5961    5962    5963    5964    5965    5966    5967    5968    
        5969    5970    5971    5972    5973    5974    5975    5976    
        5977    5978    5979    5980    5981    5982    5983    5984    
        5985    5986    5987    5988    5989    5990    5991    5992    
$ ... 48 like lines cut

AELIST  2284    6370    6371    6372    6373    6374    6375    6376    
        6377    6378    6379    6380    6381    6382    6383    6384    
        6385    6386    6387    6388    6389    6390    6391    6392    
        6393    6394    6395    6396    6397    6398    6399    6400    
        6401    6402    6403    6404    6405    6406    6407    6408    
        6409    6410    6411    6412    6413    6414    6415    6416    
        6417    6418    6419    6420    6421    6422    6423    6424    
        6425    6426    6427    6428    6429    6430    6431    6432    
        6433    6434    6435    6436    6437    6438    6439    6440    
        6441    6442    6443    6444    6445    6446    6447    6448    
        6449    6450    6451    6452    6453    6454    6455    6456    
        6457    6458    6459    6460    6461    6462    6463    6464    
        6465    6466    6467    6468    6469    6470    6471    6472    
        6473    6474    6475    6476    6477    6478    6479    6480    
        6481    6482    6483    6484    6485    6486    6487    6488    
        6489    6490    6491    6492    6493    6494    6495    6496    
        6497    6498    6499    6500    6501    6502    6503    6504    
        6505    6506    6507    6508    6509    6510    6511    6512    
        6513    6514    6515    6516    6517    6518    6519    6520    
        6521    6522    6523    6524    6525    6526    6527    6528    
        6529    6530    6531    6532    6533    6534    6535    6536    
$ ... 34 like lines cut

AELIST  2285    6802    6803    6804    6805    6806    6807    6808    
        6809    6810    6811    6812    6813    6814    6815    6816    
        6817    6818    6819    6820    6821    6822    6823    6824    
        6825    6826    6827    6828    6829    6830    6831    6832    
        6833    6834    6835    6836    6837    6838    6839    6840    
        6841    6842    6843    6844    6845    6846    6847    6848    
        6849    6850    6851    6852    6853    6854    6855    6856    
        6857    6858    6859    6860    6861    6862    6863    6864    
        6865    6866    6867    6868    6869    6870    6871    6872    
        6873    6874    6875    6876    6877    6878    6879    6880    
        6881    6882    6883    6884    6885    6886    6887    6888    
        6889    6890    6891    6892    6893    6894    6895    6896    
        6897    6898    6899    6900    6901    6902    6903    6904    
        6905    6906    6907    6908    6909    6910    6911    6912    
        6913    6914    6915    6916    6917    6918    6919    6920    
        6921    6922    6923    6924    6925    6926    6927    6928    
        6929    6930    6931    6932    6933    6934    6935    6936    
        6937    6938    6939    6940    6941    6942    6943    6944    
        6945    6946    6947    6948    6949    6950    6951    6952    
        6953    6954    6955    6956    6957    6958    6959    6960    
        6961    6962    6963    6964    6965    6966    6967    6968    
        6969    6970    6971    6972    6973    6974    6975    6976    
        6977    

AELIST  2286    6978    6979    6980    6981    6982    6983    6984    
        6985    6986    6987    6988    6989    6990    6991    6992    
        6993    6994    6995    6996    6997    6998    6999    7000    
        7001    7002    7003    7004    7005    7006    7007    7008    
        7009    7010    7011    7012    7013    7014    7015    7016    
        7017    7018    7019    7020    7021    7022    7023    7024    
        7025    7026    7027    7028    7029    7030    7031    7032    
        7033    7034    7035    7036    7037    7038    7039    7040    
        7041    7042    7043    7044    7045    7046    7047    7048    
        7049    7050    7051    7052    7053    7054    7055    7056    
        7057    7058    7059    7060    7061    7062    7063    7064    
        7065    7066    7067    7068    7069    7070    7071    7072    
        7073    7074    7075    7076    7077    7078    7079    7080    
        7081    7082    7083    7084    7085    7086    7087    7088    
        7089    7090    7091    7092    7093    7094    7095    7096    
        7097    7098    7099    7100    7101    7102    7103    7104    
        7105    7106    7107    7108    7109    7110    7111    7112    
        7113    7114    7115    7116    7117    7118    7119    7120    
        7121    7122    7123    7124    7125    7126    7127    7128    
        7129    7130    7131    7132    7133    7134    7135    7136    
        7137    7138    7139    7140    7141    7142    7143    7144    
$ ... 102 like lines cut

$.1.....2.......3.......4.......5.......6.......7.......8.......9.......10......
SPLINE7 2452            2282            2112    0.00    1.00    1005    
                                BOTH    FBS6    0.00    1.00    0.0100  
SPLINE7 2453            2283            2113    0.00    1.00    1006    
                                BOTH    FBS6    0.00    1.00    0.0100  
SPLINE7 2454            2284            2114    0.00    1.00    1006    
                                BOTH    FBS6    0.00    1.00    0.0100  
SPLINE7 2455            2285            2115    0.00    1.00    1006    
                                BOTH    FBS6    0.00    1.00    0.0100  
SPLINE7 2456            2286            2116    0.00    1.00    1006    
                                BOTH    FBS6    0.00    1.00    0.0100  
$.1.....2.......3.......4.......5.......6.......7.......8.......9.......10......
CBUSH   2491    2500    1432    1433                            0       
$.1.....2.......3.......4.......5.......6.......7.......8.......9.......10......
RJOINT  2492    1045    1432    123456  
RJOINT  2493    1357    1433    123456  
