$ File information
$
$	- Created on  : 17-Mar-2021 20:55:06
$	- Created by  : hg174 (CHARLES-PC)
$	- Matlab ver  : 9.10.0.1602886 (R2021a)
$	- ALENA ver   : v0
$
$  Summary for component Fuselage:
$
$	* CoordSys        : 2       
$	* Nodes           : 345     
$	* PointMasses     : 10      
$	* Beams           : 68      
$	* BeamProps       : 68      
$	* Materials       : 1       
$	* RigidBars       : 69      
$	* AeroPanels      : 160     
$	* AeroProps       : 1       
$	* StructuralSets  : 160     
$	* AeroSets        : 160     
$	* Splines         : 160     
$
$.1.....2...............3...............4...............5...............6.......
CORD2R* 1000            0               0.0000000       0.0000000       
*       0.0000000       0.0000000       0.0000000       1.0000000       
*       1.0000000       0.0000000       0.0000000       
CORD2R* 1001            0               0.0000000       0.0000000       
*       0.0000000       0.0000000       0.0000000       1.0000000       
*       1.0000000       0.0000000       0.0000000       
$.1.....2...............3...............4...............5...............6.......
GRID*   1012            0               0.0000000       0.0000000       
*       0.0000000       1000            
GRID*   1013            0               0.19791876      0.0000000       
*       0.0000000       1000            
GRID*   1014            0               0.39583752      0.0000000       
*       0.0000000       1000            
GRID*   1015            0               0.59379385      0.0000000       
*       0.0000000       1000            
GRID*   1016            0               0.79171261      0.0000000       
*       0.0000000       1000            
GRID*   1017            0               0.98966894      0.0000000       
*       0.0000000       1000            
GRID*   1018            0               1.1875877       0.0000000       
*       0.0000000       1000            
GRID*   1019            0               1.3855440       0.0000000       
*       0.0000000       1000            
GRID*   1020            0               1.5834628       0.0000000       
*       0.0000000       1000            
GRID*   1021            0               1.7813815       0.0000000       
*       0.0000000       1000            
GRID*   1022            0               1.9793379       0.0000000       
*       0.0000000       1000            
GRID*   1023            0               2.1772566       0.0000000       
*       0.0000000       1000            
GRID*   1024            0               2.3752130       0.0000000       
*       0.0000000       1000            
GRID*   1025            0               2.5731317       0.0000000       
*       0.0000000       1000            
GRID*   1026            0               2.7710881       0.0000000       
*       0.0000000       1000            
GRID*   1027            0               2.9690068       0.0000000       
*       0.0000000       1000            
GRID*   1028            0               3.1669256       0.0000000       
*       0.0000000       1000            
GRID*   1029            0               3.3648819       0.0000000       
*       0.0000000       1000            
GRID*   1030            0               3.5628007       0.0000000       
*       0.0000000       1000            
GRID*   1031            0               3.7607570       0.0000000       
*       0.0000000       1000            
$ ... 650 like lines cut
$.1.....2...............3...............4...............5...............6.......
CONM2*  2462            1012            0               100.00000       
*       0.0000000       0.0000000       0.0000000                       
*       0.10000000      0.10000000      0.10000000      0.10000000      
*       0.10000000      0.10000000      
CONM2*  2463            1031            0               100.00000       
*       -0.0037570000   0.0000000       0.0000000                       
*       0.10000000      0.10000000      0.10000000      0.10000000      
*       0.10000000      0.10000000      
CONM2*  2464            1036            0               100.00000       
*       -0.14053685     0.0000000       0.0000000                       
*       0.10000000      0.10000000      0.10000000      0.10000000      
*       0.10000000      0.10000000      
CONM2*  2465            1041            0               100.00000       
*       -0.27731669     0.0000000       0.0000000                       
*       0.10000000      0.10000000      0.10000000      0.10000000      
*       0.10000000      0.10000000      
CONM2*  2466            1045            0               100.00000       
*       0.36465943      0.0000000       0.0000000                       
*       0.10000000      0.10000000      0.10000000      0.10000000      
*       0.10000000      0.10000000      
CONM2*  2467            1050            0               100.00000       
*       0.22787958      0.0000000       0.0000000                       
*       0.10000000      0.10000000      0.10000000      0.10000000      
*       0.10000000      0.10000000      
CONM2*  2468            1055            0               100.00000       
*       0.091099736     0.0000000       0.0000000                       
*       0.10000000      0.10000000      0.10000000      0.10000000      
*       0.10000000      0.10000000      
CONM2*  2469            1060            0               100.00000       
*       -0.045680111    0.0000000       0.0000000                       
*       0.10000000      0.10000000      0.10000000      0.10000000      
*       0.10000000      0.10000000      
CONM2*  2470            1066            0               100.00000       
*       0.18345431      0.0000000       0.0000000                       
*       0.10000000      0.10000000      0.10000000      0.10000000      
*       0.10000000      0.10000000      
CONM2*  2471            1073            0               100.00000       
*       0.091745940     0.0000000       0.0000000                       
*       0.10000000      0.10000000      0.10000000      0.10000000      
*       0.10000000      0.10000000      
$.1.....2.......3.......4.......5.......6.......7.......8.......9.......10......
CBEAM   1498    1718    1012    1013    0.00    1.00    0.00            
                        0.00    0.00    0.00    0.00    0.00    0.00    
CBEAM   1499    1719    1013    1014    0.00    1.00    0.00            
                        0.00    0.00    0.00    0.00    0.00    0.00    
CBEAM   1500    1720    1014    1015    0.00    1.00    0.00            
                        0.00    0.00    0.00    0.00    0.00    0.00    
CBEAM   1501    1721    1015    1016    0.00    1.00    0.00            
                        0.00    0.00    0.00    0.00    0.00    0.00    
CBEAM   1502    1722    1016    1017    0.00    1.00    0.00            
                        0.00    0.00    0.00    0.00    0.00    0.00    
CBEAM   1503    1723    1017    1018    0.00    1.00    0.00            
                        0.00    0.00    0.00    0.00    0.00    0.00    
CBEAM   1504    1724    1018    1019    0.00    1.00    0.00            
                        0.00    0.00    0.00    0.00    0.00    0.00    
CBEAM   1505    1725    1019    1020    0.00    1.00    0.00            
                        0.00    0.00    0.00    0.00    0.00    0.00    
CBEAM   1506    1726    1020    1021    0.00    1.00    0.00            
                        0.00    0.00    0.00    0.00    0.00    0.00    
CBEAM   1507    1727    1021    1022    0.00    1.00    0.00            
                        0.00    0.00    0.00    0.00    0.00    0.00    
CBEAM   1508    1728    1022    1023    0.00    1.00    0.00            
                        0.00    0.00    0.00    0.00    0.00    0.00    
CBEAM   1509    1729    1023    1024    0.00    1.00    0.00            
                        0.00    0.00    0.00    0.00    0.00    0.00    
CBEAM   1510    1730    1024    1025    0.00    1.00    0.00            
                        0.00    0.00    0.00    0.00    0.00    0.00    
CBEAM   1511    1731    1025    1026    0.00    1.00    0.00            
                        0.00    0.00    0.00    0.00    0.00    0.00    
CBEAM   1512    1732    1026    1027    0.00    1.00    0.00            
                        0.00    0.00    0.00    0.00    0.00    0.00    
CBEAM   1513    1733    1027    1028    0.00    1.00    0.00            
                        0.00    0.00    0.00    0.00    0.00    0.00    
CBEAM   1514    1734    1028    1029    0.00    1.00    0.00            
                        0.00    0.00    0.00    0.00    0.00    0.00    
CBEAM   1515    1735    1029    1030    0.00    1.00    0.00            
                        0.00    0.00    0.00    0.00    0.00    0.00    
CBEAM   1516    1736    1030    1031    0.00    1.00    0.00            
                        0.00    0.00    0.00    0.00    0.00    0.00    
CBEAM   1517    1737    1031    1032    0.00    1.00    0.00            
                        0.00    0.00    0.00    0.00    0.00    0.00    
$ ... 96 like lines cut
$.1.....2...............3...............4...............5...............6.......
PBEAM*  1718            1828            0.079600000     0.052538653     
*       0.052538653     0.0000000       0.078805990     223.67600       
*       0.0000000       0.0000000       0.0000000       0.0000000       
*       0.0000000       0.0000000       0.0000000       0.0000000       
*       YES             1.0000000       0.079600000     0.052538653     
*       0.052538653     0.0000000       0.078805990     223.67600       
*       0.0000000       0.0000000       0.0000000       0.0000000       
*       0.0000000       0.0000000       0.0000000       0.0000000       
*       0.0000000       0.0000000       0.0000000       0.0000000       
*       295.26723       295.26723       0.0000000       0.0000000       
*       0.0000000       0.0000000       0.0000000       0.0000000       
*       0.0000000       0.0000000       0.0000000       0.0000000       
PBEAM*  1719            1828            0.079600000     0.052538653     
*       0.052538653     0.0000000       0.078805990     223.67600       
*       0.0000000       0.0000000       0.0000000       0.0000000       
*       0.0000000       0.0000000       0.0000000       0.0000000       
*       YES             1.0000000       0.079600000     0.052538653     
*       0.052538653     0.0000000       0.078805990     223.67600       
*       0.0000000       0.0000000       0.0000000       0.0000000       
*       0.0000000       0.0000000       0.0000000       0.0000000       
*       0.0000000       0.0000000       0.0000000       0.0000000       
*       295.26723       295.26723       0.0000000       0.0000000       
*       0.0000000       0.0000000       0.0000000       0.0000000       
*       0.0000000       0.0000000       0.0000000       0.0000000       
PBEAM*  1720            1828            0.079600000     0.052538653     
*       0.052538653     0.0000000       0.078805990     223.67600       
*       0.0000000       0.0000000       0.0000000       0.0000000       
*       0.0000000       0.0000000       0.0000000       0.0000000       
*       YES             1.0000000       0.079600000     0.052538653     
*       0.052538653     0.0000000       0.078805990     223.67600       
*       0.0000000       0.0000000       0.0000000       0.0000000       
*       0.0000000       0.0000000       0.0000000       0.0000000       
*       0.0000000       0.0000000       0.0000000       0.0000000       
*       295.26723       295.26723       0.0000000       0.0000000       
*       0.0000000       0.0000000       0.0000000       0.0000000       
*       0.0000000       0.0000000       0.0000000       0.0000000       
PBEAM*  1721            1828            0.079600000     0.052538653     
*       0.052538653     0.0000000       0.078805990     223.67600       
*       0.0000000       0.0000000       0.0000000       0.0000000       
*       0.0000000       0.0000000       0.0000000       0.0000000       
*       YES             1.0000000       0.079600000     0.052538653     
*       0.052538653     0.0000000       0.078805990     223.67600       
*       0.0000000       0.0000000       0.0000000       0.0000000       
*       0.0000000       0.0000000       0.0000000       0.0000000       
*       0.0000000       0.0000000       0.0000000       0.0000000       
*       295.26723       295.26723       0.0000000       0.0000000       
*       0.0000000       0.0000000       0.0000000       0.0000000       
*       0.0000000       0.0000000       0.0000000       0.0000000       
PBEAM*  1722            1828            0.079600000     0.052538653     
*       0.052538653     0.0000000       0.078805990     223.67600       
*       0.0000000       0.0000000       0.0000000       0.0000000       
*       0.0000000       0.0000000       0.0000000       0.0000000       
*       YES             1.0000000       0.079600000     0.052538653     
*       0.052538653     0.0000000       0.078805990     223.67600       
*       0.0000000       0.0000000       0.0000000       0.0000000       
*       0.0000000       0.0000000       0.0000000       0.0000000       
*       0.0000000       0.0000000       0.0000000       0.0000000       
*       295.26723       295.26723       0.0000000       0.0000000       
*       0.0000000       0.0000000       0.0000000       0.0000000       
*       0.0000000       0.0000000       0.0000000       0.0000000       
PBEAM*  1723            1828            0.079600000     0.052538653     
*       0.052538653     0.0000000       0.078805990     223.67600       
*       0.0000000       0.0000000       0.0000000       0.0000000       
*       0.0000000       0.0000000       0.0000000       0.0000000       
*       YES             1.0000000       0.079600000     0.052538653     
*       0.052538653     0.0000000       0.078805990     223.67600       
*       0.0000000       0.0000000       0.0000000       0.0000000       
*       0.0000000       0.0000000       0.0000000       0.0000000       
*       0.0000000       0.0000000       0.0000000       0.0000000       
*       295.26723       295.26723       0.0000000       0.0000000       
*       0.0000000       0.0000000       0.0000000       0.0000000       
*       0.0000000       0.0000000       0.0000000       0.0000000       
PBEAM*  1724            1828            0.079600000     0.052538653     
*       0.052538653     0.0000000       0.078805990     223.67600       
*       0.0000000       0.0000000       0.0000000       0.0000000       
*       0.0000000       0.0000000       0.0000000       0.0000000       
*       YES             1.0000000       0.079600000     0.052538653     
*       0.052538653     0.0000000       0.078805990     223.67600       
*       0.0000000       0.0000000       0.0000000       0.0000000       
*       0.0000000       0.0000000       0.0000000       0.0000000       
*       0.0000000       0.0000000       0.0000000       0.0000000       
*       295.26723       295.26723       0.0000000       0.0000000       
*       0.0000000       0.0000000       0.0000000       0.0000000       
*       0.0000000       0.0000000       0.0000000       0.0000000       
PBEAM*  1725            1828            0.079600000     0.052538653     
*       0.052538653     0.0000000       0.078805990     223.67600       
*       0.0000000       0.0000000       0.0000000       0.0000000       
*       0.0000000       0.0000000       0.0000000       0.0000000       
*       YES             1.0000000       0.079600000     0.052538653     
*       0.052538653     0.0000000       0.078805990     223.67600       
*       0.0000000       0.0000000       0.0000000       0.0000000       
*       0.0000000       0.0000000       0.0000000       0.0000000       
*       0.0000000       0.0000000       0.0000000       0.0000000       
*       295.26723       295.26723       0.0000000       0.0000000       
*       0.0000000       0.0000000       0.0000000       0.0000000       
*       0.0000000       0.0000000       0.0000000       0.0000000       
PBEAM*  1726            1828            0.079600000     0.052538653     
*       0.052538653     0.0000000       0.078805990     223.67600       
*       0.0000000       0.0000000       0.0000000       0.0000000       
*       0.0000000       0.0000000       0.0000000       0.0000000       
*       YES             1.0000000       0.079600000     0.052538653     
*       0.052538653     0.0000000       0.078805990     223.67600       
*       0.0000000       0.0000000       0.0000000       0.0000000       
*       0.0000000       0.0000000       0.0000000       0.0000000       
*       0.0000000       0.0000000       0.0000000       0.0000000       
*       295.26723       295.26723       0.0000000       0.0000000       
*       0.0000000       0.0000000       0.0000000       0.0000000       
*       0.0000000       0.0000000       0.0000000       0.0000000       
PBEAM*  1727            1828            0.079600000     0.052538653     
*       0.052538653     0.0000000       0.078805990     223.67600       
*       0.0000000       0.0000000       0.0000000       0.0000000       
*       0.0000000       0.0000000       0.0000000       0.0000000       
*       YES             1.0000000       0.079600000     0.052538653     
*       0.052538653     0.0000000       0.078805990     223.67600       
*       0.0000000       0.0000000       0.0000000       0.0000000       
*       0.0000000       0.0000000       0.0000000       0.0000000       
*       0.0000000       0.0000000       0.0000000       0.0000000       
*       295.26723       295.26723       0.0000000       0.0000000       
*       0.0000000       0.0000000       0.0000000       0.0000000       
*       0.0000000       0.0000000       0.0000000       0.0000000       
PBEAM*  1728            1828            0.079600000     0.052538653     
*       0.052538653     0.0000000       0.078805990     223.67600       
*       0.0000000       0.0000000       0.0000000       0.0000000       
*       0.0000000       0.0000000       0.0000000       0.0000000       
*       YES             1.0000000       0.079600000     0.052538653     
*       0.052538653     0.0000000       0.078805990     223.67600       
*       0.0000000       0.0000000       0.0000000       0.0000000       
*       0.0000000       0.0000000       0.0000000       0.0000000       
*       0.0000000       0.0000000       0.0000000       0.0000000       
*       295.26723       295.26723       0.0000000       0.0000000       
*       0.0000000       0.0000000       0.0000000       0.0000000       
*       0.0000000       0.0000000       0.0000000       0.0000000       
PBEAM*  1729            1828            0.079600000     0.052538653     
*       0.052538653     0.0000000       0.078805990     223.67600       
*       0.0000000       0.0000000       0.0000000       0.0000000       
*       0.0000000       0.0000000       0.0000000       0.0000000       
*       YES             1.0000000       0.079600000     0.052538653     
*       0.052538653     0.0000000       0.078805990     223.67600       
*       0.0000000       0.0000000       0.0000000       0.0000000       
*       0.0000000       0.0000000       0.0000000       0.0000000       
*       0.0000000       0.0000000       0.0000000       0.0000000       
*       295.26723       295.26723       0.0000000       0.0000000       
*       0.0000000       0.0000000       0.0000000       0.0000000       
*       0.0000000       0.0000000       0.0000000       0.0000000       
PBEAM*  1730            1828            0.079600000     0.052538653     
*       0.052538653     0.0000000       0.078805990     223.67600       
*       0.0000000       0.0000000       0.0000000       0.0000000       
*       0.0000000       0.0000000       0.0000000       0.0000000       
*       YES             1.0000000       0.079600000     0.052538653     
*       0.052538653     0.0000000       0.078805990     223.67600       
*       0.0000000       0.0000000       0.0000000       0.0000000       
*       0.0000000       0.0000000       0.0000000       0.0000000       
*       0.0000000       0.0000000       0.0000000       0.0000000       
*       295.26723       295.26723       0.0000000       0.0000000       
*       0.0000000       0.0000000       0.0000000       0.0000000       
*       0.0000000       0.0000000       0.0000000       0.0000000       
PBEAM*  1731            1828            0.079600000     0.052538653     
*       0.052538653     0.0000000       0.078805990     223.67600       
*       0.0000000       0.0000000       0.0000000       0.0000000       
*       0.0000000       0.0000000       0.0000000       0.0000000       
*       YES             1.0000000       0.079600000     0.052538653     
*       0.052538653     0.0000000       0.078805990     223.67600       
*       0.0000000       0.0000000       0.0000000       0.0000000       
*       0.0000000       0.0000000       0.0000000       0.0000000       
*       0.0000000       0.0000000       0.0000000       0.0000000       
*       295.26723       295.26723       0.0000000       0.0000000       
*       0.0000000       0.0000000       0.0000000       0.0000000       
*       0.0000000       0.0000000       0.0000000       0.0000000       
PBEAM*  1732            1828            0.079600000     0.052538653     
*       0.052538653     0.0000000       0.078805990     223.67600       
*       0.0000000       0.0000000       0.0000000       0.0000000       
*       0.0000000       0.0000000       0.0000000       0.0000000       
*       YES             1.0000000       0.079600000     0.052538653     
*       0.052538653     0.0000000       0.078805990     223.67600       
*       0.0000000       0.0000000       0.0000000       0.0000000       
*       0.0000000       0.0000000       0.0000000       0.0000000       
*       0.0000000       0.0000000       0.0000000       0.0000000       
*       295.26723       295.26723       0.0000000       0.0000000       
*       0.0000000       0.0000000       0.0000000       0.0000000       
*       0.0000000       0.0000000       0.0000000       0.0000000       
PBEAM*  1733            1828            0.079600000     0.052538653     
*       0.052538653     0.0000000       0.078805990     223.67600       
*       0.0000000       0.0000000       0.0000000       0.0000000       
*       0.0000000       0.0000000       0.0000000       0.0000000       
*       YES             1.0000000       0.079600000     0.052538653     
*       0.052538653     0.0000000       0.078805990     223.67600       
*       0.0000000       0.0000000       0.0000000       0.0000000       
*       0.0000000       0.0000000       0.0000000       0.0000000       
*       0.0000000       0.0000000       0.0000000       0.0000000       
*       295.26723       295.26723       0.0000000       0.0000000       
*       0.0000000       0.0000000       0.0000000       0.0000000       
*       0.0000000       0.0000000       0.0000000       0.0000000       
PBEAM*  1734            1828            0.079600000     0.052538653     
*       0.052538653     0.0000000       0.078805990     223.67600       
*       0.0000000       0.0000000       0.0000000       0.0000000       
*       0.0000000       0.0000000       0.0000000       0.0000000       
*       YES             1.0000000       0.079600000     0.052538653     
*       0.052538653     0.0000000       0.078805990     223.67600       
*       0.0000000       0.0000000       0.0000000       0.0000000       
*       0.0000000       0.0000000       0.0000000       0.0000000       
*       0.0000000       0.0000000       0.0000000       0.0000000       
*       295.26723       295.26723       0.0000000       0.0000000       
*       0.0000000       0.0000000       0.0000000       0.0000000       
*       0.0000000       0.0000000       0.0000000       0.0000000       
PBEAM*  1735            1828            0.079600000     0.052538653     
*       0.052538653     0.0000000       0.078805990     223.67600       
*       0.0000000       0.0000000       0.0000000       0.0000000       
*       0.0000000       0.0000000       0.0000000       0.0000000       
*       YES             1.0000000       0.079600000     0.052538653     
*       0.052538653     0.0000000       0.078805990     223.67600       
*       0.0000000       0.0000000       0.0000000       0.0000000       
*       0.0000000       0.0000000       0.0000000       0.0000000       
*       0.0000000       0.0000000       0.0000000       0.0000000       
*       295.26723       295.26723       0.0000000       0.0000000       
*       0.0000000       0.0000000       0.0000000       0.0000000       
*       0.0000000       0.0000000       0.0000000       0.0000000       
PBEAM*  1736            1828            0.079600000     0.052538653     
*       0.052538653     0.0000000       0.078805990     223.67600       
*       0.0000000       0.0000000       0.0000000       0.0000000       
*       0.0000000       0.0000000       0.0000000       0.0000000       
*       YES             1.0000000       0.079600000     0.052538653     
*       0.052538653     0.0000000       0.078805990     223.67600       
*       0.0000000       0.0000000       0.0000000       0.0000000       
*       0.0000000       0.0000000       0.0000000       0.0000000       
*       0.0000000       0.0000000       0.0000000       0.0000000       
*       295.26723       295.26723       0.0000000       0.0000000       
*       0.0000000       0.0000000       0.0000000       0.0000000       
*       0.0000000       0.0000000       0.0000000       0.0000000       
PBEAM*  1737            1828            0.079600000     0.052538653     
*       0.052538653     0.0000000       0.078805990     223.67600       
*       0.0000000       0.0000000       0.0000000       0.0000000       
*       0.0000000       0.0000000       0.0000000       0.0000000       
*       YES             1.0000000       0.079600000     0.052538653     
*       0.052538653     0.0000000       0.078805990     223.67600       
*       0.0000000       0.0000000       0.0000000       0.0000000       
*       0.0000000       0.0000000       0.0000000       0.0000000       
*       0.0000000       0.0000000       0.0000000       0.0000000       
*       295.26723       295.26723       0.0000000       0.0000000       
*       0.0000000       0.0000000       0.0000000       0.0000000       
*       0.0000000       0.0000000       0.0000000       0.0000000       
PBEAM*  1738            1828            0.079600000     0.052538653     
*       0.052538653     0.0000000       0.078805990     223.67600       
*       0.0000000       0.0000000       0.0000000       0.0000000       
*       0.0000000       0.0000000       0.0000000       0.0000000       
*       YES             1.0000000       0.079600000     0.052538653     
*       0.052538653     0.0000000       0.078805990     223.67600       
*       0.0000000       0.0000000       0.0000000       0.0000000       
*       0.0000000       0.0000000       0.0000000       0.0000000       
*       0.0000000       0.0000000       0.0000000       0.0000000       
*       295.26723       295.26723       0.0000000       0.0000000       
*       0.0000000       0.0000000       0.0000000       0.0000000       
*       0.0000000       0.0000000       0.0000000       0.0000000       
PBEAM*  1739            1828            0.079600000     0.052538653     
*       0.052538653     0.0000000       0.078805990     223.67600       
*       0.0000000       0.0000000       0.0000000       0.0000000       
*       0.0000000       0.0000000       0.0000000       0.0000000       
*       YES             1.0000000       0.079600000     0.052538653     
*       0.052538653     0.0000000       0.078805990     223.67600       
*       0.0000000       0.0000000       0.0000000       0.0000000       
*       0.0000000       0.0000000       0.0000000       0.0000000       
*       0.0000000       0.0000000       0.0000000       0.0000000       
*       295.26723       295.26723       0.0000000       0.0000000       
*       0.0000000       0.0000000       0.0000000       0.0000000       
*       0.0000000       0.0000000       0.0000000       0.0000000       
PBEAM*  1740            1828            0.079600000     0.052538653     
*       0.052538653     0.0000000       0.078805990     223.67600       
*       0.0000000       0.0000000       0.0000000       0.0000000       
*       0.0000000       0.0000000       0.0000000       0.0000000       
*       YES             1.0000000       0.079600000     0.052538653     
*       0.052538653     0.0000000       0.078805990     223.67600       
*       0.0000000       0.0000000       0.0000000       0.0000000       
*       0.0000000       0.0000000       0.0000000       0.0000000       
*       0.0000000       0.0000000       0.0000000       0.0000000       
*       295.26723       295.26723       0.0000000       0.0000000       
*       0.0000000       0.0000000       0.0000000       0.0000000       
*       0.0000000       0.0000000       0.0000000       0.0000000       
PBEAM*  1741            1828            0.079600000     0.052538653     
*       0.052538653     0.0000000       0.078805990     223.67600       
*       0.0000000       0.0000000       0.0000000       0.0000000       
*       0.0000000       0.0000000       0.0000000       0.0000000       
*       YES             1.0000000       0.079600000     0.052538653     
*       0.052538653     0.0000000       0.078805990     223.67600       
*       0.0000000       0.0000000       0.0000000       0.0000000       
*       0.0000000       0.0000000       0.0000000       0.0000000       
*       0.0000000       0.0000000       0.0000000       0.0000000       
*       295.26723       295.26723       0.0000000       0.0000000       
*       0.0000000       0.0000000       0.0000000       0.0000000       
*       0.0000000       0.0000000       0.0000000       0.0000000       
PBEAM*  1742            1828            0.079600000     0.052538653     
*       0.052538653     0.0000000       0.078805990     223.67600       
*       0.0000000       0.0000000       0.0000000       0.0000000       
*       0.0000000       0.0000000       0.0000000       0.0000000       
*       YES             1.0000000       0.079600000     0.052538653     
*       0.052538653     0.0000000       0.078805990     223.67600       
*       0.0000000       0.0000000       0.0000000       0.0000000       
*       0.0000000       0.0000000       0.0000000       0.0000000       
*       0.0000000       0.0000000       0.0000000       0.0000000       
*       295.26723       295.26723       0.0000000       0.0000000       
*       0.0000000       0.0000000       0.0000000       0.0000000       
*       0.0000000       0.0000000       0.0000000       0.0000000       
PBEAM*  1743            1828            0.079600000     0.052538653     
*       0.052538653     0.0000000       0.078805990     223.67600       
*       0.0000000       0.0000000       0.0000000       0.0000000       
*       0.0000000       0.0000000       0.0000000       0.0000000       
*       YES             1.0000000       0.079600000     0.052538653     
*       0.052538653     0.0000000       0.078805990     223.67600       
*       0.0000000       0.0000000       0.0000000       0.0000000       
*       0.0000000       0.0000000       0.0000000       0.0000000       
*       0.0000000       0.0000000       0.0000000       0.0000000       
*       295.26723       295.26723       0.0000000       0.0000000       
*       0.0000000       0.0000000       0.0000000       0.0000000       
*       0.0000000       0.0000000       0.0000000       0.0000000       
PBEAM*  1744            1828            0.079600000     0.052538653     
*       0.052538653     0.0000000       0.078805990     223.67600       
*       0.0000000       0.0000000       0.0000000       0.0000000       
*       0.0000000       0.0000000       0.0000000       0.0000000       
*       YES             1.0000000       0.079600000     0.052538653     
*       0.052538653     0.0000000       0.078805990     223.67600       
*       0.0000000       0.0000000       0.0000000       0.0000000       
*       0.0000000       0.0000000       0.0000000       0.0000000       
*       0.0000000       0.0000000       0.0000000       0.0000000       
*       295.26723       295.26723       0.0000000       0.0000000       
*       0.0000000       0.0000000       0.0000000       0.0000000       
*       0.0000000       0.0000000       0.0000000       0.0000000       
PBEAM*  1745            1828            0.079600000     0.052538653     
*       0.052538653     0.0000000       0.078805990     223.67600       
*       0.0000000       0.0000000       0.0000000       0.0000000       
*       0.0000000       0.0000000       0.0000000       0.0000000       
*       YES             1.0000000       0.079600000     0.052538653     
*       0.052538653     0.0000000       0.078805990     223.67600       
*       0.0000000       0.0000000       0.0000000       0.0000000       
*       0.0000000       0.0000000       0.0000000       0.0000000       
*       0.0000000       0.0000000       0.0000000       0.0000000       
*       295.26723       295.26723       0.0000000       0.0000000       
*       0.0000000       0.0000000       0.0000000       0.0000000       
*       0.0000000       0.0000000       0.0000000       0.0000000       
PBEAM*  1746            1828            0.079600000     0.052538653     
*       0.052538653     0.0000000       0.078805990     223.67600       
*       0.0000000       0.0000000       0.0000000       0.0000000       
*       0.0000000       0.0000000       0.0000000       0.0000000       
*       YES             1.0000000       0.079600000     0.052538653     
*       0.052538653     0.0000000       0.078805990     223.67600       
*       0.0000000       0.0000000       0.0000000       0.0000000       
*       0.0000000       0.0000000       0.0000000       0.0000000       
*       0.0000000       0.0000000       0.0000000       0.0000000       
*       295.26723       295.26723       0.0000000       0.0000000       
*       0.0000000       0.0000000       0.0000000       0.0000000       
*       0.0000000       0.0000000       0.0000000       0.0000000       
PBEAM*  1747            1828            0.079600000     0.052538653     
*       0.052538653     0.0000000       0.078805990     223.67600       
*       0.0000000       0.0000000       0.0000000       0.0000000       
*       0.0000000       0.0000000       0.0000000       0.0000000       
*       YES             1.0000000       0.079600000     0.052538653     
*       0.052538653     0.0000000       0.078805990     223.67600       
*       0.0000000       0.0000000       0.0000000       0.0000000       
*       0.0000000       0.0000000       0.0000000       0.0000000       
*       0.0000000       0.0000000       0.0000000       0.0000000       
*       295.26723       295.26723       0.0000000       0.0000000       
*       0.0000000       0.0000000       0.0000000       0.0000000       
*       0.0000000       0.0000000       0.0000000       0.0000000       
PBEAM*  1748            1828            0.079600000     0.052538653     
*       0.052538653     0.0000000       0.078805990     223.67600       
*       0.0000000       0.0000000       0.0000000       0.0000000       
*       0.0000000       0.0000000       0.0000000       0.0000000       
*       YES             1.0000000       0.079600000     0.052538653     
*       0.052538653     0.0000000       0.078805990     223.67600       
*       0.0000000       0.0000000       0.0000000       0.0000000       
*       0.0000000       0.0000000       0.0000000       0.0000000       
*       0.0000000       0.0000000       0.0000000       0.0000000       
*       295.26723       295.26723       0.0000000       0.0000000       
*       0.0000000       0.0000000       0.0000000       0.0000000       
*       0.0000000       0.0000000       0.0000000       0.0000000       
PBEAM*  1749            1828            0.079600000     0.052538653     
*       0.052538653     0.0000000       0.078805990     223.67600       
*       0.0000000       0.0000000       0.0000000       0.0000000       
*       0.0000000       0.0000000       0.0000000       0.0000000       
*       YES             1.0000000       0.079600000     0.052538653     
*       0.052538653     0.0000000       0.078805990     223.67600       
*       0.0000000       0.0000000       0.0000000       0.0000000       
*       0.0000000       0.0000000       0.0000000       0.0000000       
*       0.0000000       0.0000000       0.0000000       0.0000000       
*       295.26723       295.26723       0.0000000       0.0000000       
*       0.0000000       0.0000000       0.0000000       0.0000000       
*       0.0000000       0.0000000       0.0000000       0.0000000       
PBEAM*  1750            1828            0.079600000     0.052538653     
*       0.052538653     0.0000000       0.078805990     223.67600       
*       0.0000000       0.0000000       0.0000000       0.0000000       
*       0.0000000       0.0000000       0.0000000       0.0000000       
*       YES             1.0000000       0.079600000     0.052538653     
*       0.052538653     0.0000000       0.078805990     223.67600       
*       0.0000000       0.0000000       0.0000000       0.0000000       
*       0.0000000       0.0000000       0.0000000       0.0000000       
*       0.0000000       0.0000000       0.0000000       0.0000000       
*       295.26723       295.26723       0.0000000       0.0000000       
*       0.0000000       0.0000000       0.0000000       0.0000000       
*       0.0000000       0.0000000       0.0000000       0.0000000       
PBEAM*  1751            1828            0.079600000     0.052538653     
*       0.052538653     0.0000000       0.078805990     223.67600       
*       0.0000000       0.0000000       0.0000000       0.0000000       
*       0.0000000       0.0000000       0.0000000       0.0000000       
*       YES             1.0000000       0.079600000     0.052538653     
*       0.052538653     0.0000000       0.078805990     223.67600       
*       0.0000000       0.0000000       0.0000000       0.0000000       
*       0.0000000       0.0000000       0.0000000       0.0000000       
*       0.0000000       0.0000000       0.0000000       0.0000000       
*       295.26723       295.26723       0.0000000       0.0000000       
*       0.0000000       0.0000000       0.0000000       0.0000000       
*       0.0000000       0.0000000       0.0000000       0.0000000       
PBEAM*  1752            1828            0.079600000     0.052538653     
*       0.052538653     0.0000000       0.078805990     223.67600       
*       0.0000000       0.0000000       0.0000000       0.0000000       
*       0.0000000       0.0000000       0.0000000       0.0000000       
*       YES             1.0000000       0.079600000     0.052538653     
*       0.052538653     0.0000000       0.078805990     223.67600       
*       0.0000000       0.0000000       0.0000000       0.0000000       
*       0.0000000       0.0000000       0.0000000       0.0000000       
*       0.0000000       0.0000000       0.0000000       0.0000000       
*       295.26723       295.26723       0.0000000       0.0000000       
*       0.0000000       0.0000000       0.0000000       0.0000000       
*       0.0000000       0.0000000       0.0000000       0.0000000       
PBEAM*  1753            1828            0.079600000     0.052538653     
*       0.052538653     0.0000000       0.078805990     223.67600       
*       0.0000000       0.0000000       0.0000000       0.0000000       
*       0.0000000       0.0000000       0.0000000       0.0000000       
*       YES             1.0000000       0.079600000     0.052538653     
*       0.052538653     0.0000000       0.078805990     223.67600       
*       0.0000000       0.0000000       0.0000000       0.0000000       
*       0.0000000       0.0000000       0.0000000       0.0000000       
*       0.0000000       0.0000000       0.0000000       0.0000000       
*       295.26723       295.26723       0.0000000       0.0000000       
*       0.0000000       0.0000000       0.0000000       0.0000000       
*       0.0000000       0.0000000       0.0000000       0.0000000       
PBEAM*  1754            1828            0.079600000     0.052538653     
*       0.052538653     0.0000000       0.078805990     223.67600       
*       0.0000000       0.0000000       0.0000000       0.0000000       
*       0.0000000       0.0000000       0.0000000       0.0000000       
*       YES             1.0000000       0.079600000     0.052538653     
*       0.052538653     0.0000000       0.078805990     223.67600       
*       0.0000000       0.0000000       0.0000000       0.0000000       
*       0.0000000       0.0000000       0.0000000       0.0000000       
*       0.0000000       0.0000000       0.0000000       0.0000000       
*       295.26723       295.26723       0.0000000       0.0000000       
*       0.0000000       0.0000000       0.0000000       0.0000000       
*       0.0000000       0.0000000       0.0000000       0.0000000       
PBEAM*  1755            1828            0.079600000     0.052538653     
*       0.052538653     0.0000000       0.078805990     223.67600       
*       0.0000000       0.0000000       0.0000000       0.0000000       
*       0.0000000       0.0000000       0.0000000       0.0000000       
*       YES             1.0000000       0.079600000     0.052538653     
*       0.052538653     0.0000000       0.078805990     223.67600       
*       0.0000000       0.0000000       0.0000000       0.0000000       
*       0.0000000       0.0000000       0.0000000       0.0000000       
*       0.0000000       0.0000000       0.0000000       0.0000000       
*       295.26723       295.26723       0.0000000       0.0000000       
*       0.0000000       0.0000000       0.0000000       0.0000000       
*       0.0000000       0.0000000       0.0000000       0.0000000       
PBEAM*  1756            1828            0.079600000     0.052538653     
*       0.052538653     0.0000000       0.078805990     223.67600       
*       0.0000000       0.0000000       0.0000000       0.0000000       
*       0.0000000       0.0000000       0.0000000       0.0000000       
*       YES             1.0000000       0.079600000     0.052538653     
*       0.052538653     0.0000000       0.078805990     223.67600       
*       0.0000000       0.0000000       0.0000000       0.0000000       
*       0.0000000       0.0000000       0.0000000       0.0000000       
*       0.0000000       0.0000000       0.0000000       0.0000000       
*       295.26723       295.26723       0.0000000       0.0000000       
*       0.0000000       0.0000000       0.0000000       0.0000000       
*       0.0000000       0.0000000       0.0000000       0.0000000       
PBEAM*  1757            1828            0.079600000     0.052538653     
*       0.052538653     0.0000000       0.078805990     223.67600       
*       0.0000000       0.0000000       0.0000000       0.0000000       
*       0.0000000       0.0000000       0.0000000       0.0000000       
*       YES             1.0000000       0.079600000     0.052538653     
*       0.052538653     0.0000000       0.078805990     223.67600       
*       0.0000000       0.0000000       0.0000000       0.0000000       
*       0.0000000       0.0000000       0.0000000       0.0000000       
*       0.0000000       0.0000000       0.0000000       0.0000000       
*       295.26723       295.26723       0.0000000       0.0000000       
*       0.0000000       0.0000000       0.0000000       0.0000000       
*       0.0000000       0.0000000       0.0000000       0.0000000       
PBEAM*  1758            1828            0.079600000     0.052538653     
*       0.052538653     0.0000000       0.078805990     223.67600       
*       0.0000000       0.0000000       0.0000000       0.0000000       
*       0.0000000       0.0000000       0.0000000       0.0000000       
*       YES             1.0000000       0.079600000     0.052538653     
*       0.052538653     0.0000000       0.078805990     223.67600       
*       0.0000000       0.0000000       0.0000000       0.0000000       
*       0.0000000       0.0000000       0.0000000       0.0000000       
*       0.0000000       0.0000000       0.0000000       0.0000000       
*       295.26723       295.26723       0.0000000       0.0000000       
*       0.0000000       0.0000000       0.0000000       0.0000000       
*       0.0000000       0.0000000       0.0000000       0.0000000       
PBEAM*  1759            1828            0.079600000     0.052538653     
*       0.052538653     0.0000000       0.078805990     223.67600       
*       0.0000000       0.0000000       0.0000000       0.0000000       
*       0.0000000       0.0000000       0.0000000       0.0000000       
*       YES             1.0000000       0.079600000     0.052538653     
*       0.052538653     0.0000000       0.078805990     223.67600       
*       0.0000000       0.0000000       0.0000000       0.0000000       
*       0.0000000       0.0000000       0.0000000       0.0000000       
*       0.0000000       0.0000000       0.0000000       0.0000000       
*       295.26723       295.26723       0.0000000       0.0000000       
*       0.0000000       0.0000000       0.0000000       0.0000000       
*       0.0000000       0.0000000       0.0000000       0.0000000       
PBEAM*  1760            1828            0.079600000     0.052538653     
*       0.052538653     0.0000000       0.078805990     223.67600       
*       0.0000000       0.0000000       0.0000000       0.0000000       
*       0.0000000       0.0000000       0.0000000       0.0000000       
*       YES             1.0000000       0.079600000     0.052538653     
*       0.052538653     0.0000000       0.078805990     223.67600       
*       0.0000000       0.0000000       0.0000000       0.0000000       
*       0.0000000       0.0000000       0.0000000       0.0000000       
*       0.0000000       0.0000000       0.0000000       0.0000000       
*       295.26723       295.26723       0.0000000       0.0000000       
*       0.0000000       0.0000000       0.0000000       0.0000000       
*       0.0000000       0.0000000       0.0000000       0.0000000       
PBEAM*  1761            1828            0.079600000     0.052538653     
*       0.052538653     0.0000000       0.078805990     223.67600       
*       0.0000000       0.0000000       0.0000000       0.0000000       
*       0.0000000       0.0000000       0.0000000       0.0000000       
*       YES             1.0000000       0.079600000     0.052538653     
*       0.052538653     0.0000000       0.078805990     223.67600       
*       0.0000000       0.0000000       0.0000000       0.0000000       
*       0.0000000       0.0000000       0.0000000       0.0000000       
*       0.0000000       0.0000000       0.0000000       0.0000000       
*       295.26723       295.26723       0.0000000       0.0000000       
*       0.0000000       0.0000000       0.0000000       0.0000000       
*       0.0000000       0.0000000       0.0000000       0.0000000       
PBEAM*  1762            1828            0.079600000     0.052538653     
*       0.052538653     0.0000000       0.078805990     223.67600       
*       0.0000000       0.0000000       0.0000000       0.0000000       
*       0.0000000       0.0000000       0.0000000       0.0000000       
*       YES             1.0000000       0.079600000     0.052538653     
*       0.052538653     0.0000000       0.078805990     223.67600       
*       0.0000000       0.0000000       0.0000000       0.0000000       
*       0.0000000       0.0000000       0.0000000       0.0000000       
*       0.0000000       0.0000000       0.0000000       0.0000000       
*       295.26723       295.26723       0.0000000       0.0000000       
*       0.0000000       0.0000000       0.0000000       0.0000000       
*       0.0000000       0.0000000       0.0000000       0.0000000       
PBEAM*  1763            1828            0.079600000     0.052538653     
*       0.052538653     0.0000000       0.078805990     223.67600       
*       0.0000000       0.0000000       0.0000000       0.0000000       
*       0.0000000       0.0000000       0.0000000       0.0000000       
*       YES             1.0000000       0.079600000     0.052538653     
*       0.052538653     0.0000000       0.078805990     223.67600       
*       0.0000000       0.0000000       0.0000000       0.0000000       
*       0.0000000       0.0000000       0.0000000       0.0000000       
*       0.0000000       0.0000000       0.0000000       0.0000000       
*       295.26723       295.26723       0.0000000       0.0000000       
*       0.0000000       0.0000000       0.0000000       0.0000000       
*       0.0000000       0.0000000       0.0000000       0.0000000       
PBEAM*  1764            1828            0.079600000     0.052538653     
*       0.052538653     0.0000000       0.078805990     223.67600       
*       0.0000000       0.0000000       0.0000000       0.0000000       
*       0.0000000       0.0000000       0.0000000       0.0000000       
*       YES             1.0000000       0.079600000     0.052538653     
*       0.052538653     0.0000000       0.078805990     223.67600       
*       0.0000000       0.0000000       0.0000000       0.0000000       
*       0.0000000       0.0000000       0.0000000       0.0000000       
*       0.0000000       0.0000000       0.0000000       0.0000000       
*       295.26723       295.26723       0.0000000       0.0000000       
*       0.0000000       0.0000000       0.0000000       0.0000000       
*       0.0000000       0.0000000       0.0000000       0.0000000       
PBEAM*  1765            1828            0.079600000     0.052538653     
*       0.052538653     0.0000000       0.078805990     223.67600       
*       0.0000000       0.0000000       0.0000000       0.0000000       
*       0.0000000       0.0000000       0.0000000       0.0000000       
*       YES             1.0000000       0.079600000     0.052538653     
*       0.052538653     0.0000000       0.078805990     223.67600       
*       0.0000000       0.0000000       0.0000000       0.0000000       
*       0.0000000       0.0000000       0.0000000       0.0000000       
*       0.0000000       0.0000000       0.0000000       0.0000000       
*       295.26723       295.26723       0.0000000       0.0000000       
*       0.0000000       0.0000000       0.0000000       0.0000000       
*       0.0000000       0.0000000       0.0000000       0.0000000       
PBEAM*  1766            1828            0.079600000     0.052538653     
*       0.052538653     0.0000000       0.078805990     223.67600       
*       0.0000000       0.0000000       0.0000000       0.0000000       
*       0.0000000       0.0000000       0.0000000       0.0000000       
*       YES             1.0000000       0.079600000     0.052538653     
*       0.052538653     0.0000000       0.078805990     223.67600       
*       0.0000000       0.0000000       0.0000000       0.0000000       
*       0.0000000       0.0000000       0.0000000       0.0000000       
*       0.0000000       0.0000000       0.0000000       0.0000000       
*       295.26723       295.26723       0.0000000       0.0000000       
*       0.0000000       0.0000000       0.0000000       0.0000000       
*       0.0000000       0.0000000       0.0000000       0.0000000       
PBEAM*  1767            1828            0.079600000     0.052538653     
*       0.052538653     0.0000000       0.078805990     223.67600       
*       0.0000000       0.0000000       0.0000000       0.0000000       
*       0.0000000       0.0000000       0.0000000       0.0000000       
*       YES             1.0000000       0.079600000     0.052538653     
*       0.052538653     0.0000000       0.078805990     223.67600       
*       0.0000000       0.0000000       0.0000000       0.0000000       
*       0.0000000       0.0000000       0.0000000       0.0000000       
*       0.0000000       0.0000000       0.0000000       0.0000000       
*       295.26723       295.26723       0.0000000       0.0000000       
*       0.0000000       0.0000000       0.0000000       0.0000000       
*       0.0000000       0.0000000       0.0000000       0.0000000       
PBEAM*  1768            1828            0.079600000     0.052538653     
*       0.052538653     0.0000000       0.078805990     223.67600       
*       0.0000000       0.0000000       0.0000000       0.0000000       
*       0.0000000       0.0000000       0.0000000       0.0000000       
*       YES             1.0000000       0.079600000     0.052538653     
*       0.052538653     0.0000000       0.078805990     223.67600       
*       0.0000000       0.0000000       0.0000000       0.0000000       
*       0.0000000       0.0000000       0.0000000       0.0000000       
*       0.0000000       0.0000000       0.0000000       0.0000000       
*       295.26723       295.26723       0.0000000       0.0000000       
*       0.0000000       0.0000000       0.0000000       0.0000000       
*       0.0000000       0.0000000       0.0000000       0.0000000       
PBEAM*  1769            1828            0.079600000     0.052538653     
*       0.052538653     0.0000000       0.078805990     223.67600       
*       0.0000000       0.0000000       0.0000000       0.0000000       
*       0.0000000       0.0000000       0.0000000       0.0000000       
*       YES             1.0000000       0.079600000     0.052538653     
*       0.052538653     0.0000000       0.078805990     223.67600       
*       0.0000000       0.0000000       0.0000000       0.0000000       
*       0.0000000       0.0000000       0.0000000       0.0000000       
*       0.0000000       0.0000000       0.0000000       0.0000000       
*       295.26723       295.26723       0.0000000       0.0000000       
*       0.0000000       0.0000000       0.0000000       0.0000000       
*       0.0000000       0.0000000       0.0000000       0.0000000       
PBEAM*  1770            1828            0.079600000     0.052538653     
*       0.052538653     0.0000000       0.078805990     223.67600       
*       0.0000000       0.0000000       0.0000000       0.0000000       
*       0.0000000       0.0000000       0.0000000       0.0000000       
*       YES             1.0000000       0.079600000     0.052538653     
*       0.052538653     0.0000000       0.078805990     223.67600       
*       0.0000000       0.0000000       0.0000000       0.0000000       
*       0.0000000       0.0000000       0.0000000       0.0000000       
*       0.0000000       0.0000000       0.0000000       0.0000000       
*       295.26723       295.26723       0.0000000       0.0000000       
*       0.0000000       0.0000000       0.0000000       0.0000000       
*       0.0000000       0.0000000       0.0000000       0.0000000       
PBEAM*  1771            1828            0.079600000     0.052538653     
*       0.052538653     0.0000000       0.078805990     223.67600       
*       0.0000000       0.0000000       0.0000000       0.0000000       
*       0.0000000       0.0000000       0.0000000       0.0000000       
*       YES             1.0000000       0.079600000     0.052538653     
*       0.052538653     0.0000000       0.078805990     223.67600       
*       0.0000000       0.0000000       0.0000000       0.0000000       
*       0.0000000       0.0000000       0.0000000       0.0000000       
*       0.0000000       0.0000000       0.0000000       0.0000000       
*       295.26723       295.26723       0.0000000       0.0000000       
*       0.0000000       0.0000000       0.0000000       0.0000000       
*       0.0000000       0.0000000       0.0000000       0.0000000       
PBEAM*  1772            1828            0.079600000     0.052538653     
*       0.052538653     0.0000000       0.078805990     223.67600       
*       0.0000000       0.0000000       0.0000000       0.0000000       
*       0.0000000       0.0000000       0.0000000       0.0000000       
*       YES             1.0000000       0.079600000     0.052538653     
*       0.052538653     0.0000000       0.078805990     223.67600       
*       0.0000000       0.0000000       0.0000000       0.0000000       
*       0.0000000       0.0000000       0.0000000       0.0000000       
*       0.0000000       0.0000000       0.0000000       0.0000000       
*       295.26723       295.26723       0.0000000       0.0000000       
*       0.0000000       0.0000000       0.0000000       0.0000000       
*       0.0000000       0.0000000       0.0000000       0.0000000       
PBEAM*  1773            1828            0.079600000     0.052538653     
*       0.052538653     0.0000000       0.078805990     223.67600       
*       0.0000000       0.0000000       0.0000000       0.0000000       
*       0.0000000       0.0000000       0.0000000       0.0000000       
*       YES             1.0000000       0.079600000     0.052538653     
*       0.052538653     0.0000000       0.078805990     223.67600       
*       0.0000000       0.0000000       0.0000000       0.0000000       
*       0.0000000       0.0000000       0.0000000       0.0000000       
*       0.0000000       0.0000000       0.0000000       0.0000000       
*       295.26723       295.26723       0.0000000       0.0000000       
*       0.0000000       0.0000000       0.0000000       0.0000000       
*       0.0000000       0.0000000       0.0000000       0.0000000       
PBEAM*  1774            1828            0.079600000     0.052538653     
*       0.052538653     0.0000000       0.078805990     223.67600       
*       0.0000000       0.0000000       0.0000000       0.0000000       
*       0.0000000       0.0000000       0.0000000       0.0000000       
*       YES             1.0000000       0.079600000     0.052538653     
*       0.052538653     0.0000000       0.078805990     223.67600       
*       0.0000000       0.0000000       0.0000000       0.0000000       
*       0.0000000       0.0000000       0.0000000       0.0000000       
*       0.0000000       0.0000000       0.0000000       0.0000000       
*       295.26723       295.26723       0.0000000       0.0000000       
*       0.0000000       0.0000000       0.0000000       0.0000000       
*       0.0000000       0.0000000       0.0000000       0.0000000       
PBEAM*  1775            1828            0.079600000     0.052538653     
*       0.052538653     0.0000000       0.078805990     223.67600       
*       0.0000000       0.0000000       0.0000000       0.0000000       
*       0.0000000       0.0000000       0.0000000       0.0000000       
*       YES             1.0000000       0.079600000     0.052538653     
*       0.052538653     0.0000000       0.078805990     223.67600       
*       0.0000000       0.0000000       0.0000000       0.0000000       
*       0.0000000       0.0000000       0.0000000       0.0000000       
*       0.0000000       0.0000000       0.0000000       0.0000000       
*       295.26723       295.26723       0.0000000       0.0000000       
*       0.0000000       0.0000000       0.0000000       0.0000000       
*       0.0000000       0.0000000       0.0000000       0.0000000       
PBEAM*  1776            1828            0.079600000     0.052538653     
*       0.052538653     0.0000000       0.078805990     223.67600       
*       0.0000000       0.0000000       0.0000000       0.0000000       
*       0.0000000       0.0000000       0.0000000       0.0000000       
*       YES             1.0000000       0.079600000     0.052538653     
*       0.052538653     0.0000000       0.078805990     223.67600       
*       0.0000000       0.0000000       0.0000000       0.0000000       
*       0.0000000       0.0000000       0.0000000       0.0000000       
*       0.0000000       0.0000000       0.0000000       0.0000000       
*       295.26723       295.26723       0.0000000       0.0000000       
*       0.0000000       0.0000000       0.0000000       0.0000000       
*       0.0000000       0.0000000       0.0000000       0.0000000       
PBEAM*  1777            1828            0.079600000     0.052538653     
*       0.052538653     0.0000000       0.078805990     223.67600       
*       0.0000000       0.0000000       0.0000000       0.0000000       
*       0.0000000       0.0000000       0.0000000       0.0000000       
*       YES             1.0000000       0.079600000     0.052538653     
*       0.052538653     0.0000000       0.078805990     223.67600       
*       0.0000000       0.0000000       0.0000000       0.0000000       
*       0.0000000       0.0000000       0.0000000       0.0000000       
*       0.0000000       0.0000000       0.0000000       0.0000000       
*       295.26723       295.26723       0.0000000       0.0000000       
*       0.0000000       0.0000000       0.0000000       0.0000000       
*       0.0000000       0.0000000       0.0000000       0.0000000       
PBEAM*  1778            1828            0.079600000     0.052538653     
*       0.052538653     0.0000000       0.078805990     223.67600       
*       0.0000000       0.0000000       0.0000000       0.0000000       
*       0.0000000       0.0000000       0.0000000       0.0000000       
*       YES             1.0000000       0.079600000     0.052538653     
*       0.052538653     0.0000000       0.078805990     223.67600       
*       0.0000000       0.0000000       0.0000000       0.0000000       
*       0.0000000       0.0000000       0.0000000       0.0000000       
*       0.0000000       0.0000000       0.0000000       0.0000000       
*       295.26723       295.26723       0.0000000       0.0000000       
*       0.0000000       0.0000000       0.0000000       0.0000000       
*       0.0000000       0.0000000       0.0000000       0.0000000       
PBEAM*  1779            1828            0.079600000     0.052538653     
*       0.052538653     0.0000000       0.078805990     223.67600       
*       0.0000000       0.0000000       0.0000000       0.0000000       
*       0.0000000       0.0000000       0.0000000       0.0000000       
*       YES             1.0000000       0.079600000     0.052538653     
*       0.052538653     0.0000000       0.078805990     223.67600       
*       0.0000000       0.0000000       0.0000000       0.0000000       
*       0.0000000       0.0000000       0.0000000       0.0000000       
*       0.0000000       0.0000000       0.0000000       0.0000000       
*       295.26723       295.26723       0.0000000       0.0000000       
*       0.0000000       0.0000000       0.0000000       0.0000000       
*       0.0000000       0.0000000       0.0000000       0.0000000       
PBEAM*  1780            1828            0.079600000     0.052538653     
*       0.052538653     0.0000000       0.078805990     223.67600       
*       0.0000000       0.0000000       0.0000000       0.0000000       
*       0.0000000       0.0000000       0.0000000       0.0000000       
*       YES             1.0000000       0.079600000     0.052538653     
*       0.052538653     0.0000000       0.078805990     223.67600       
*       0.0000000       0.0000000       0.0000000       0.0000000       
*       0.0000000       0.0000000       0.0000000       0.0000000       
*       0.0000000       0.0000000       0.0000000       0.0000000       
*       295.26723       295.26723       0.0000000       0.0000000       
*       0.0000000       0.0000000       0.0000000       0.0000000       
*       0.0000000       0.0000000       0.0000000       0.0000000       
PBEAM*  1781            1828            0.079600000     0.052538653     
*       0.052538653     0.0000000       0.078805990     223.67600       
*       0.0000000       0.0000000       0.0000000       0.0000000       
*       0.0000000       0.0000000       0.0000000       0.0000000       
*       YES             1.0000000       0.079600000     0.052538653     
*       0.052538653     0.0000000       0.078805990     223.67600       
*       0.0000000       0.0000000       0.0000000       0.0000000       
*       0.0000000       0.0000000       0.0000000       0.0000000       
*       0.0000000       0.0000000       0.0000000       0.0000000       
*       295.26723       295.26723       0.0000000       0.0000000       
*       0.0000000       0.0000000       0.0000000       0.0000000       
*       0.0000000       0.0000000       0.0000000       0.0000000       
PBEAM*  1782            1828            0.079600000     0.052538653     
*       0.052538653     0.0000000       0.078805990     223.67600       
*       0.0000000       0.0000000       0.0000000       0.0000000       
*       0.0000000       0.0000000       0.0000000       0.0000000       
*       YES             1.0000000       0.079600000     0.052538653     
*       0.052538653     0.0000000       0.078805990     223.67600       
*       0.0000000       0.0000000       0.0000000       0.0000000       
*       0.0000000       0.0000000       0.0000000       0.0000000       
*       0.0000000       0.0000000       0.0000000       0.0000000       
*       295.26723       295.26723       0.0000000       0.0000000       
*       0.0000000       0.0000000       0.0000000       0.0000000       
*       0.0000000       0.0000000       0.0000000       0.0000000       
PBEAM*  1783            1828            0.079600000     0.052538653     
*       0.052538653     0.0000000       0.078805990     223.67600       
*       0.0000000       0.0000000       0.0000000       0.0000000       
*       0.0000000       0.0000000       0.0000000       0.0000000       
*       YES             1.0000000       0.079600000     0.052538653     
*       0.052538653     0.0000000       0.078805990     223.67600       
*       0.0000000       0.0000000       0.0000000       0.0000000       
*       0.0000000       0.0000000       0.0000000       0.0000000       
*       0.0000000       0.0000000       0.0000000       0.0000000       
*       295.26723       295.26723       0.0000000       0.0000000       
*       0.0000000       0.0000000       0.0000000       0.0000000       
*       0.0000000       0.0000000       0.0000000       0.0000000       
PBEAM*  1784            1828            0.079600000     0.052538653     
*       0.052538653     0.0000000       0.078805990     223.67600       
*       0.0000000       0.0000000       0.0000000       0.0000000       
*       0.0000000       0.0000000       0.0000000       0.0000000       
*       YES             1.0000000       0.079600000     0.052538653     
*       0.052538653     0.0000000       0.078805990     223.67600       
*       0.0000000       0.0000000       0.0000000       0.0000000       
*       0.0000000       0.0000000       0.0000000       0.0000000       
*       0.0000000       0.0000000       0.0000000       0.0000000       
*       295.26723       295.26723       0.0000000       0.0000000       
*       0.0000000       0.0000000       0.0000000       0.0000000       
*       0.0000000       0.0000000       0.0000000       0.0000000       
PBEAM*  1785            1828            0.079600000     0.052538653     
*       0.052538653     0.0000000       0.078805990     223.67600       
*       0.0000000       0.0000000       0.0000000       0.0000000       
*       0.0000000       0.0000000       0.0000000       0.0000000       
*       YES             1.0000000       0.079600000     0.052538653     
*       0.052538653     0.0000000       0.078805990     223.67600       
*       0.0000000       0.0000000       0.0000000       0.0000000       
*       0.0000000       0.0000000       0.0000000       0.0000000       
*       0.0000000       0.0000000       0.0000000       0.0000000       
*       295.26723       295.26723       0.0000000       0.0000000       
*       0.0000000       0.0000000       0.0000000       0.0000000       
*       0.0000000       0.0000000       0.0000000       0.0000000       
$.1.....2...............3...............4...............5...............6.......
MAT1*   1828            7.6000000e+10   2.8507127e+10   0.33300000      
*       0.0000000       
$.1.....2.......3.......4.......5.......6.......7.......8.......9.......10......
RBE2    1832    1012    123456  1081    1150    1219    1288    
RBE2    1833    1013    123456  1082    1151    1220    1289    
RBE2    1834    1014    123456  1083    1152    1221    1290    
RBE2    1835    1015    123456  1084    1153    1222    1291    
RBE2    1836    1016    123456  1085    1154    1223    1292    
RBE2    1837    1017    123456  1086    1155    1224    1293    
RBE2    1838    1018    123456  1087    1156    1225    1294    
RBE2    1839    1019    123456  1088    1157    1226    1295    
RBE2    1840    1020    123456  1089    1158    1227    1296    
RBE2    1841    1021    123456  1090    1159    1228    1297    
RBE2    1842    1022    123456  1091    1160    1229    1298    
RBE2    1843    1023    123456  1092    1161    1230    1299    
RBE2    1844    1024    123456  1093    1162    1231    1300    
RBE2    1845    1025    123456  1094    1163    1232    1301    
RBE2    1846    1026    123456  1095    1164    1233    1302    
RBE2    1847    1027    123456  1096    1165    1234    1303    
RBE2    1848    1028    123456  1097    1166    1235    1304    
RBE2    1849    1029    123456  1098    1167    1236    1305    
RBE2    1850    1030    123456  1099    1168    1237    1306    
RBE2    1851    1031    123456  1100    1169    1238    1307    
$ ... 49 like lines cut
$.1.....2.......3.......4.......5.......6.......7.......8.......9.......10......
CAERO1  2503    1946    0       5       1                       1       
        0.00    0.00    0.00    0.198   0.00    0.0100  0.00    0.198   
CAERO1  3507    1946    0       5       1                       1       
        0.00    0.00    0.00    0.198   0.00    0.00    0.0100  0.198   
CAERO1  3512    1946    0       5       1                       1       
        0.00    0.00    0.00    0.198   0.00    -0.0100 0.00    0.198   
CAERO1  3517    1946    0       5       1                       1       
        0.00    0.00    0.00    0.198   0.00    0.00    -0.0100 0.198   
CAERO1  3522    1946    0       5       1                       1       
        0.198   0.00    0.00    0.198   0.198   0.384   0.00    0.198   
CAERO1  3527    1946    0       5       1                       1       
        0.198   0.00    0.00    0.198   0.198   0.00    0.384   0.198   
CAERO1  3532    1946    0       5       1                       1       
        0.198   0.00    0.00    0.198   0.198   -0.384  0.00    0.198   
CAERO1  3537    1946    0       5       1                       1       
        0.198   0.00    0.00    0.198   0.198   0.00    -0.384  0.198   
CAERO1  3542    1946    0       5       1                       1       
        0.396   0.00    0.00    0.198   0.396   0.565   0.00    0.198   
CAERO1  3547    1946    0       5       1                       1       
        0.396   0.00    0.00    0.198   0.396   0.00    0.565   0.198   
CAERO1  3552    1946    0       5       1                       1       
        0.396   0.00    0.00    0.198   0.396   -0.565  0.00    0.198   
CAERO1  3557    1946    0       5       1                       1       
        0.396   0.00    0.00    0.198   0.396   0.00    -0.565  0.198   
CAERO1  3562    1946    0       5       1                       1       
        0.594   0.00    0.00    0.198   0.594   0.708   0.00    0.198   
CAERO1  3567    1946    0       5       1                       1       
        0.594   0.00    0.00    0.198   0.594   0.00    0.708   0.198   
CAERO1  3572    1946    0       5       1                       1       
        0.594   0.00    0.00    0.198   0.594   -0.708  0.00    0.198   
CAERO1  3577    1946    0       5       1                       1       
        0.594   0.00    0.00    0.198   0.594   0.00    -0.708  0.198   
CAERO1  3582    1946    0       5       1                       1       
        0.792   0.00    0.00    0.198   0.792   0.831   0.00    0.198   
CAERO1  3587    1946    0       5       1                       1       
        0.792   0.00    0.00    0.198   0.792   0.00    0.831   0.198   
CAERO1  3592    1946    0       5       1                       1       
        0.792   0.00    0.00    0.198   0.792   -0.831  0.00    0.198   
CAERO1  3597    1946    0       5       1                       1       
        0.792   0.00    0.00    0.198   0.792   0.00    -0.831  0.198   
$ ... 280 like lines cut
$.1.....2.......3.......4.......5.......6.......7.......8.......9.......10......
PAERO1  1946            
$.1.....2.......3.......4.......5.......6.......7.......8.......9.......10......
SET1    1952    1012    1288    
SET1    1953    1012    1288    
SET1    1954    1012    1288    
SET1    1955    1012    1288    
SET1    1956    1013    1289    
SET1    1957    1013    1289    
SET1    1958    1013    1289    
SET1    1959    1013    1289    
SET1    1960    1014    1290    
SET1    1961    1014    1290    
SET1    1962    1014    1290    
SET1    1963    1014    1290    
SET1    1964    1015    1291    
SET1    1965    1015    1291    
SET1    1966    1015    1291    
SET1    1967    1015    1291    
SET1    1968    1016    1292    
SET1    1969    1016    1292    
SET1    1970    1016    1292    
SET1    1971    1016    1292    
$ ... 140 like lines cut
$.1.....2.......3.......4.......5.......6.......7.......8.......9.......10......
AELIST  2122    2503    2504    2505    2506    2507    
AELIST  2123    3507    3508    3509    3510    3511    
AELIST  2124    3512    3513    3514    3515    3516    
AELIST  2125    3517    3518    3519    3520    3521    
AELIST  2126    3522    3523    3524    3525    3526    
AELIST  2127    3527    3528    3529    3530    3531    
AELIST  2128    3532    3533    3534    3535    3536    
AELIST  2129    3537    3538    3539    3540    3541    
AELIST  2130    3542    3543    3544    3545    3546    
AELIST  2131    3547    3548    3549    3550    3551    
AELIST  2132    3552    3553    3554    3555    3556    
AELIST  2133    3557    3558    3559    3560    3561    
AELIST  2134    3562    3563    3564    3565    3566    
AELIST  2135    3567    3568    3569    3570    3571    
AELIST  2136    3572    3573    3574    3575    3576    
AELIST  2137    3577    3578    3579    3580    3581    
AELIST  2138    3582    3583    3584    3585    3586    
AELIST  2139    3587    3588    3589    3590    3591    
AELIST  2140    3592    3593    3594    3595    3596    
AELIST  2141    3597    3598    3599    3600    3601    
$ ... 57 like lines cut
        3889    3890    3891    3892    3893    3894    3895    3896    
        3897    3898    3899    3900    3901    3902    3903    3904    
        3905    3906    3907    3908    3909    3910    3911    3912    
        3913    3914    3915    3916    3917    3918    3919    3920    
        3921    3922    3923    3924    3925    3926    3927    3928    
        3929    3930    3931    3932    3933    3934    3935    3936    
        3937    3938    3939    3940    3941    3942    3943    3944    
        3945    3946    3947    3948    3949    3950    3951    3952    
        3953    3954    3955    3956    3957    3958    3959    3960    
        3961    3962    3963    3964    3965    3966    3967    3968    
        3969    3970    3971    3972    3973    3974    3975    3976    
        3977    3978    3979    3980    3981    3982    3983    3984    
        3985    3986    3987    3988    3989    3990    3991    3992    
        3993    3994    3995    3996    3997    3998    3999    4000    
        4001    

AELIST  2199    4002    4003    4004    4005    4006    4007    4008    
        4009    4010    4011    4012    4013    4014    4015    4016    
        4017    4018    4019    4020    4021    4022    4023    4024    
        4025    4026    4027    4028    4029    4030    4031    4032    
        4033    4034    4035    4036    4037    4038    4039    4040    
        4041    4042    4043    4044    4045    4046    4047    4048    
        4049    4050    4051    4052    4053    4054    4055    4056    
        4057    4058    4059    4060    4061    4062    4063    4064    
        4065    4066    4067    4068    4069    4070    4071    4072    
        4073    4074    4075    4076    4077    4078    4079    4080    
        4081    4082    4083    4084    4085    4086    4087    4088    
        4089    4090    4091    4092    4093    4094    4095    4096    
        4097    4098    4099    4100    4101    4102    4103    4104    
        4105    4106    4107    4108    4109    4110    4111    4112    
        4113    4114    4115    4116    4117    4118    4119    4120    
        4121    

AELIST  2200    4122    4123    4124    4125    4126    4127    4128    
        4129    4130    4131    4132    4133    4134    4135    4136    
        4137    4138    4139    4140    4141    4142    4143    4144    
        4145    4146    4147    4148    4149    4150    4151    4152    
        4153    4154    4155    4156    4157    4158    4159    4160    
        4161    4162    4163    4164    4165    4166    4167    4168    
        4169    4170    4171    4172    4173    4174    4175    4176    
        4177    4178    4179    4180    4181    4182    4183    4184    
        4185    4186    4187    4188    4189    4190    4191    4192    
        4193    4194    4195    4196    4197    4198    4199    4200    
        4201    4202    4203    4204    4205    4206    4207    4208    
        4209    4210    4211    4212    4213    4214    4215    4216    
        4217    4218    4219    4220    4221    4222    4223    4224    
        4225    4226    4227    4228    4229    4230    4231    4232    
        4233    4234    4235    4236    4237    4238    4239    4240    
        4241    

AELIST  2201    4242    4243    4244    4245    4246    4247    4248    
        4249    4250    4251    4252    4253    4254    4255    4256    
        4257    4258    4259    4260    4261    4262    4263    4264    
        4265    4266    4267    4268    4269    4270    4271    4272    
        4273    4274    4275    4276    4277    4278    4279    4280    
        4281    4282    4283    4284    4285    4286    4287    4288    
        4289    4290    4291    4292    4293    4294    4295    4296    
        4297    4298    4299    4300    4301    4302    4303    4304    
        4305    4306    4307    4308    4309    4310    4311    4312    
        4313    4314    4315    4316    4317    4318    4319    4320    
        4321    4322    4323    4324    4325    4326    4327    4328    
        4329    4330    4331    4332    4333    4334    4335    4336    
        4337    4338    4339    4340    4341    4342    4343    4344    
        4345    4346    4347    4348    4349    4350    4351    4352    
        4353    4354    4355    4356    4357    4358    4359    4360    
        4361    

AELIST  2202    4362    4363    4364    4365    4366    4367    4368    
        4369    4370    4371    4372    4373    4374    4375    4376    
        4377    4378    4379    4380    4381    4382    4383    4384    
        4385    4386    4387    4388    4389    4390    4391    4392    
        4393    4394    4395    4396    4397    4398    4399    4400    
        4401    4402    4403    4404    4405    4406    4407    4408    
        4409    4410    4411    4412    4413    4414    4415    4416    
        4417    4418    4419    4420    4421    4422    4423    4424    
        4425    4426    4427    4428    4429    4430    4431    4432    
        4433    4434    4435    4436    4437    4438    4439    4440    
        4441    4442    4443    4444    4445    4446    4447    4448    
        4449    4450    4451    4452    4453    4454    4455    4456    
        4457    4458    4459    4460    4461    4462    4463    4464    
        4465    4466    4467    4468    4469    4470    4471    4472    
        4473    4474    4475    4476    4477    4478    4479    4480    
        4481    

AELIST  2203    4482    4483    4484    4485    4486    4487    4488    
        4489    4490    4491    4492    4493    4494    4495    4496    
        4497    4498    4499    4500    4501    4502    4503    4504    
        4505    4506    4507    4508    4509    4510    4511    4512    
        4513    4514    4515    4516    4517    4518    4519    4520    
        4521    4522    4523    4524    4525    4526    4527    4528    
        4529    4530    4531    4532    4533    4534    4535    4536    
        4537    4538    4539    4540    4541    4542    4543    4544    
        4545    4546    4547    4548    4549    4550    4551    4552    
        4553    4554    4555    4556    4557    4558    4559    4560    
        4561    4562    4563    4564    4565    4566    4567    4568    
        4569    4570    4571    4572    4573    4574    4575    4576    
        4577    4578    4579    4580    4581    4582    4583    4584    
        4585    4586    4587    4588    4589    4590    4591    4592    
        4593    4594    4595    4596    4597    4598    4599    4600    
        4601    

AELIST  2204    4602    4603    4604    4605    4606    4607    4608    
        4609    4610    4611    4612    4613    4614    4615    4616    
        4617    4618    4619    4620    4621    4622    4623    4624    
        4625    4626    4627    4628    4629    4630    4631    4632    
        4633    4634    4635    4636    4637    4638    4639    4640    
        4641    4642    4643    4644    4645    4646    4647    4648    
        4649    4650    4651    4652    4653    4654    4655    4656    
        4657    4658    4659    4660    4661    4662    4663    4664    
        4665    4666    4667    4668    4669    4670    4671    4672    
        4673    4674    4675    4676    4677    4678    4679    4680    
        4681    4682    4683    4684    4685    4686    4687    4688    
        4689    4690    4691    4692    4693    4694    4695    4696    
        4697    4698    4699    4700    4701    4702    4703    4704    
        4705    4706    4707    4708    4709    4710    4711    4712    
        4713    4714    4715    4716    4717    4718    4719    4720    
        4721    

AELIST  2205    4722    4723    4724    4725    4726    4727    4728    
        4729    4730    4731    4732    4733    4734    4735    4736    
        4737    4738    4739    4740    4741    4742    4743    4744    
        4745    4746    4747    4748    4749    4750    4751    4752    
        4753    4754    4755    4756    4757    4758    4759    4760    
        4761    4762    4763    4764    4765    4766    4767    4768    
        4769    4770    4771    4772    4773    4774    4775    4776    
        4777    4778    4779    4780    4781    4782    4783    4784    
        4785    4786    4787    4788    4789    4790    4791    4792    
        4793    4794    4795    4796    4797    4798    4799    4800    
        4801    4802    4803    4804    4805    4806    4807    4808    
        4809    4810    4811    4812    4813    4814    4815    4816    
        4817    4818    4819    4820    4821    4822    4823    4824    
        4825    4826    4827    4828    4829    4830    4831    4832    
        4833    4834    4835    4836    4837    4838    4839    4840    
        4841    

AELIST  2206    4842    4843    4844    4845    4846    4847    4848    
        4849    4850    4851    

AELIST  2207    4852    4853    4854    4855    4856    4857    4858    
        4859    4860    4861    

AELIST  2208    4862    4863    4864    4865    4866    4867    4868    
        4869    4870    4871    

AELIST  2209    4872    4873    4874    4875    4876    4877    4878    
        4879    4880    4881    

AELIST  2210    4882    4883    4884    4885    4886    4887    4888    
        4889    4890    4891    

AELIST  2211    4892    4893    4894    4895    4896    4897    4898    
        4899    4900    4901    

AELIST  2212    4902    4903    4904    4905    4906    4907    4908    
        4909    4910    4911    

AELIST  2213    4912    4913    4914    4915    4916    4917    4918    
        4919    4920    4921    

AELIST  2214    4922    4923    4924    4925    4926    4927    4928    
        4929    4930    4931    

AELIST  2215    4932    4933    4934    4935    4936    4937    4938    
        4939    4940    4941    

AELIST  2216    4942    4943    4944    4945    4946    4947    4948    
        4949    4950    4951    

AELIST  2217    4952    4953    4954    4955    4956    4957    4958    
        4959    4960    4961    

AELIST  2218    4962    4963    4964    4965    4966    4967    4968    
        4969    4970    4971    

AELIST  2219    4972    4973    4974    4975    4976    4977    4978    
        4979    4980    4981    

AELIST  2220    4982    4983    4984    4985    4986    4987    4988    
        4989    4990    4991    

AELIST  2221    4992    4993    4994    4995    4996    4997    4998    
        4999    5000    5001    

AELIST  2222    5002    5003    5004    5005    5006    5007    5008    
        5009    5010    5011    

AELIST  2223    5012    5013    5014    5015    5016    5017    5018    
        5019    5020    5021    

AELIST  2224    5022    5023    5024    5025    5026    5027    5028    
        5029    5030    5031    

AELIST  2225    5032    5033    5034    5035    5036    5037    5038    
$ ... 170 like lines cut
$.1.....2.......3.......4.......5.......6.......7.......8.......9.......10......
SPLINE7 2292            2122            1952    0.00    1.00    1001    
                                BOTH    FBS6    0.00    1.00    0.0100  
SPLINE7 2293            2123            1953    0.00    1.00    1001    
                                BOTH    FBS6    0.00    1.00    0.0100  
SPLINE7 2294            2124            1954    0.00    1.00    1001    
                                BOTH    FBS6    0.00    1.00    0.0100  
SPLINE7 2295            2125            1955    0.00    1.00    1001    
                                BOTH    FBS6    0.00    1.00    0.0100  
SPLINE7 2296            2126            1956    0.00    1.00    1001    
                                BOTH    FBS6    0.00    1.00    0.0100  
SPLINE7 2297            2127            1957    0.00    1.00    1001    
                                BOTH    FBS6    0.00    1.00    0.0100  
SPLINE7 2298            2128            1958    0.00    1.00    1001    
                                BOTH    FBS6    0.00    1.00    0.0100  
SPLINE7 2299            2129            1959    0.00    1.00    1001    
                                BOTH    FBS6    0.00    1.00    0.0100  
SPLINE7 2300            2130            1960    0.00    1.00    1001    
                                BOTH    FBS6    0.00    1.00    0.0100  
SPLINE7 2301            2131            1961    0.00    1.00    1001    
                                BOTH    FBS6    0.00    1.00    0.0100  
SPLINE7 2302            2132            1962    0.00    1.00    1001    
                                BOTH    FBS6    0.00    1.00    0.0100  
SPLINE7 2303            2133            1963    0.00    1.00    1001    
                                BOTH    FBS6    0.00    1.00    0.0100  
SPLINE7 2304            2134            1964    0.00    1.00    1001    
                                BOTH    FBS6    0.00    1.00    0.0100  
SPLINE7 2305            2135            1965    0.00    1.00    1001    
                                BOTH    FBS6    0.00    1.00    0.0100  
SPLINE7 2306            2136            1966    0.00    1.00    1001    
                                BOTH    FBS6    0.00    1.00    0.0100  
SPLINE7 2307            2137            1967    0.00    1.00    1001    
                                BOTH    FBS6    0.00    1.00    0.0100  
SPLINE7 2308            2138            1968    0.00    1.00    1001    
                                BOTH    FBS6    0.00    1.00    0.0100  
SPLINE7 2309            2139            1969    0.00    1.00    1001    
                                BOTH    FBS6    0.00    1.00    0.0100  
SPLINE7 2310            2140            1970    0.00    1.00    1001    
                                BOTH    FBS6    0.00    1.00    0.0100  
SPLINE7 2311            2141            1971    0.00    1.00    1001    
                                BOTH    FBS6    0.00    1.00    0.0100  
$ ... 280 like lines cut
