$ File information
$
$	- Created on  : 17-Mar-2021 20:55:06
$	- Created by  : hg174 (CHARLES-PC)
$	- Matlab ver  : 9.10.0.1602886 (R2021a)
$	- ALENA ver   : v0
$
$  Summary for component Tail_Wing_Right:
$
$	* CoordSys         : 3       
$	* Nodes            : 32      
$	* Beams            : 9       
$	* BeamProps        : 9       
$	* BushProps        : 1       
$	* Materials        : 1       
$	* RigidBars        : 10      
$	* AeroPanels       : 4       
$	* AeroControlSurf  : 1       
$	* AeroProps        : 1       
$	* StructuralSets   : 4       
$	* AeroSets         : 4       
$	* Splines          : 4       
$	* Connections      : 3       
$
$.1.....2...............3...............4...............5...............6.......
CORD2R* 1007            0               35.000000       0.0000000       
*       0.0000000       35.000000       0.0000000       1.0000000       
*       35.407636       0.91314444      0.0000000       
CORD2R* 1008            0               35.842343       1.2450000       
*       0.0000000       35.842343       1.2450000       4.2812578       
*       51.832841       -5.3225734      0.0000000       
CORD2R* 1009            0               35.000000       0.0000000       
*       0.0000000       35.000000       0.0000000       1.0000000       
*       35.913144       -0.40763615     0.0000000       
$.1.....2...............3...............4...............5...............6.......
GRID*   1434            0               35.000000       0.0000000       
*       0.0000000       1007            
GRID*   1435            0               35.308766       0.69166667      
*       0.0000000       1007            
GRID*   1436            0               35.617533       1.3833333       
*       0.0000000       1007            
GRID*   1437            0               35.926299       2.0750000       
*       0.0000000       1007            
GRID*   1438            0               36.235066       2.7666667       
*       0.0000000       1007            
GRID*   1439            0               36.543832       3.4583333       
*       0.0000000       1007            
GRID*   1440            0               36.852598       4.1500000       
*       0.0000000       1007            
GRID*   1441            0               37.161365       4.8416667       
*       0.0000000       1007            
GRID*   1442            0               37.470131       5.5333333       
*       0.0000000       1007            
GRID*   1443            0               37.778898       6.2250000       
*       0.0000000       1007            
GRID*   1444            0               33.345000       0.0000000       
*       0.0000000       0               
GRID*   1445            0               33.777201       0.69166667      
*       0.0000000       0               
GRID*   1446            0               34.209403       1.3833333       
*       0.0000000       0               
GRID*   1447            0               34.641604       2.0750000       
*       0.0000000       0               
GRID*   1448            0               35.073805       2.7666667       
*       0.0000000       0               
GRID*   1449            0               35.506007       3.4583333       
*       0.0000000       0               
GRID*   1450            0               35.938208       4.1500000       
*       0.0000000       0               
GRID*   1451            0               36.370409       4.8416667       
*       0.0000000       0               
GRID*   1452            0               36.802610       5.5333333       
*       0.0000000       0               
GRID*   1453            0               37.234812       6.2250000       
*       0.0000000       0               
$ ... 24 like lines cut
$.1.....2.......3.......4.......5.......6.......7.......8.......9.......10......
CBEAM   1590    1810    1434    1435    0.00    1.00    0.00            
                        0.00    0.00    0.00    0.00    0.00    0.00    
CBEAM   1591    1811    1435    1436    0.00    1.00    0.00            
                        0.00    0.00    0.00    0.00    0.00    0.00    
CBEAM   1592    1812    1436    1437    0.00    1.00    0.00            
                        0.00    0.00    0.00    0.00    0.00    0.00    
CBEAM   1593    1813    1437    1438    0.00    1.00    0.00            
                        0.00    0.00    0.00    0.00    0.00    0.00    
CBEAM   1594    1814    1438    1439    0.00    1.00    0.00            
                        0.00    0.00    0.00    0.00    0.00    0.00    
CBEAM   1595    1815    1439    1440    0.00    1.00    0.00            
                        0.00    0.00    0.00    0.00    0.00    0.00    
CBEAM   1596    1816    1440    1441    0.00    1.00    0.00            
                        0.00    0.00    0.00    0.00    0.00    0.00    
CBEAM   1597    1817    1441    1442    0.00    1.00    0.00            
                        0.00    0.00    0.00    0.00    0.00    0.00    
CBEAM   1598    1818    1442    1443    0.00    1.00    0.00            
                        0.00    0.00    0.00    0.00    0.00    0.00    
$.1.....2...............3...............4...............5...............6.......
PBEAM*  1810            1830            0.0057920000    5.2089131e-05   
*       0.0038396877    0.0000000       0.00019026787   16.275520       
*       0.0000000       0.0000000       0.0000000       0.0000000       
*       0.0000000       0.0000000       0.0000000       0.0000000       
*       YES             1.0000000       0.0057920000    5.2089131e-05   
*       0.0038396877    0.0000000       0.00019026787   16.275520       
*       0.0000000       0.0000000       0.0000000       0.0000000       
*       0.0000000       0.0000000       0.0000000       0.0000000       
*       0.0000000       0.0000000       0.0000000       0.0000000       
*       10.935893       10.935893       0.0000000       0.0000000       
*       0.0000000       0.0000000       0.0000000       0.0000000       
*       0.0000000       0.0000000       0.0000000       0.0000000       
PBEAM*  1811            1830            0.0057920000    5.2089131e-05   
*       0.0038396877    0.0000000       0.00019026787   16.275520       
*       0.0000000       0.0000000       0.0000000       0.0000000       
*       0.0000000       0.0000000       0.0000000       0.0000000       
*       YES             1.0000000       0.0057920000    5.2089131e-05   
*       0.0038396877    0.0000000       0.00019026787   16.275520       
*       0.0000000       0.0000000       0.0000000       0.0000000       
*       0.0000000       0.0000000       0.0000000       0.0000000       
*       0.0000000       0.0000000       0.0000000       0.0000000       
*       10.935893       10.935893       0.0000000       0.0000000       
*       0.0000000       0.0000000       0.0000000       0.0000000       
*       0.0000000       0.0000000       0.0000000       0.0000000       
PBEAM*  1812            1830            0.0057920000    5.2089131e-05   
*       0.0038396877    0.0000000       0.00019026787   16.275520       
*       0.0000000       0.0000000       0.0000000       0.0000000       
*       0.0000000       0.0000000       0.0000000       0.0000000       
*       YES             1.0000000       0.0057920000    5.2089131e-05   
*       0.0038396877    0.0000000       0.00019026787   16.275520       
*       0.0000000       0.0000000       0.0000000       0.0000000       
*       0.0000000       0.0000000       0.0000000       0.0000000       
*       0.0000000       0.0000000       0.0000000       0.0000000       
*       10.935893       10.935893       0.0000000       0.0000000       
*       0.0000000       0.0000000       0.0000000       0.0000000       
*       0.0000000       0.0000000       0.0000000       0.0000000       
PBEAM*  1813            1830            0.0057920000    5.2089131e-05   
*       0.0038396877    0.0000000       0.00019026787   16.275520       
*       0.0000000       0.0000000       0.0000000       0.0000000       
*       0.0000000       0.0000000       0.0000000       0.0000000       
*       YES             1.0000000       0.0057920000    5.2089131e-05   
*       0.0038396877    0.0000000       0.00019026787   16.275520       
*       0.0000000       0.0000000       0.0000000       0.0000000       
*       0.0000000       0.0000000       0.0000000       0.0000000       
*       0.0000000       0.0000000       0.0000000       0.0000000       
*       10.935893       10.935893       0.0000000       0.0000000       
*       0.0000000       0.0000000       0.0000000       0.0000000       
*       0.0000000       0.0000000       0.0000000       0.0000000       
PBEAM*  1814            1830            0.0057920000    5.2089131e-05   
*       0.0038396877    0.0000000       0.00019026787   16.275520       
*       0.0000000       0.0000000       0.0000000       0.0000000       
*       0.0000000       0.0000000       0.0000000       0.0000000       
*       YES             1.0000000       0.0057920000    5.2089131e-05   
*       0.0038396877    0.0000000       0.00019026787   16.275520       
*       0.0000000       0.0000000       0.0000000       0.0000000       
*       0.0000000       0.0000000       0.0000000       0.0000000       
*       0.0000000       0.0000000       0.0000000       0.0000000       
*       10.935893       10.935893       0.0000000       0.0000000       
*       0.0000000       0.0000000       0.0000000       0.0000000       
*       0.0000000       0.0000000       0.0000000       0.0000000       
PBEAM*  1815            1830            0.0057920000    5.2089131e-05   
*       0.0038396877    0.0000000       0.00019026787   16.275520       
*       0.0000000       0.0000000       0.0000000       0.0000000       
*       0.0000000       0.0000000       0.0000000       0.0000000       
*       YES             1.0000000       0.0057920000    5.2089131e-05   
*       0.0038396877    0.0000000       0.00019026787   16.275520       
*       0.0000000       0.0000000       0.0000000       0.0000000       
*       0.0000000       0.0000000       0.0000000       0.0000000       
*       0.0000000       0.0000000       0.0000000       0.0000000       
*       10.935893       10.935893       0.0000000       0.0000000       
*       0.0000000       0.0000000       0.0000000       0.0000000       
*       0.0000000       0.0000000       0.0000000       0.0000000       
PBEAM*  1816            1830            0.0057920000    5.2089131e-05   
*       0.0038396877    0.0000000       0.00019026787   16.275520       
*       0.0000000       0.0000000       0.0000000       0.0000000       
*       0.0000000       0.0000000       0.0000000       0.0000000       
*       YES             1.0000000       0.0057920000    5.2089131e-05   
*       0.0038396877    0.0000000       0.00019026787   16.275520       
*       0.0000000       0.0000000       0.0000000       0.0000000       
*       0.0000000       0.0000000       0.0000000       0.0000000       
*       0.0000000       0.0000000       0.0000000       0.0000000       
*       10.935893       10.935893       0.0000000       0.0000000       
*       0.0000000       0.0000000       0.0000000       0.0000000       
*       0.0000000       0.0000000       0.0000000       0.0000000       
PBEAM*  1817            1830            0.0057920000    5.2089131e-05   
*       0.0038396877    0.0000000       0.00019026787   16.275520       
*       0.0000000       0.0000000       0.0000000       0.0000000       
*       0.0000000       0.0000000       0.0000000       0.0000000       
*       YES             1.0000000       0.0057920000    5.2089131e-05   
*       0.0038396877    0.0000000       0.00019026787   16.275520       
*       0.0000000       0.0000000       0.0000000       0.0000000       
*       0.0000000       0.0000000       0.0000000       0.0000000       
*       0.0000000       0.0000000       0.0000000       0.0000000       
*       10.935893       10.935893       0.0000000       0.0000000       
*       0.0000000       0.0000000       0.0000000       0.0000000       
*       0.0000000       0.0000000       0.0000000       0.0000000       
PBEAM*  1818            1830            0.0057920000    5.2089131e-05   
*       0.0038396877    0.0000000       0.00019026787   16.275520       
*       0.0000000       0.0000000       0.0000000       0.0000000       
*       0.0000000       0.0000000       0.0000000       0.0000000       
*       YES             1.0000000       0.0057920000    5.2089131e-05   
*       0.0038396877    0.0000000       0.00019026787   16.275520       
*       0.0000000       0.0000000       0.0000000       0.0000000       
*       0.0000000       0.0000000       0.0000000       0.0000000       
*       0.0000000       0.0000000       0.0000000       0.0000000       
*       10.935893       10.935893       0.0000000       0.0000000       
*       0.0000000       0.0000000       0.0000000       0.0000000       
*       0.0000000       0.0000000       0.0000000       0.0000000       
$.1.....2...............3...............4...............5...............6.......
PBUSH*  2501            K               1.0000e+11      1.0000e+11      
*       1.0000e+11      1.0000e+11      1.0000e+11      1.0000e+11      
$.1.....2...............3...............4...............5...............6.......
MAT1*   1830            7.6000000e+10   2.8507127e+10   0.33300000      
*       0.0000000       
$.1.....2.......3.......4.......5.......6.......7.......8.......9.......10......
RBE2    1926    1434    123456  1444    1454    
RBE2    1927    1435    123456  1445    1455    
RBE2    1928    1436    123456  1446    1456    
RBE2    1929    1437    123456  1447    1457    
RBE2    1930    1438    123456  1448    1458    
RBE2    1931    1439    123456  1449    1459    
RBE2    1932    1440    123456  1450    1460    
RBE2    1933    1441    123456  1451    1461    
RBE2    1934    1442    123456  1452    1462    
RBE2    1935    1443    123456  1453    1463    
$.1.....2.......3.......4.......5.......6.......7.......8.......9.......10......
CAERO1  7954    1948    0       5       12                      1       
        33.3    0.00    0.00    3.31    34.1    1.25    0.00    2.87    
CAERO1  8014    1948    0       27      12                      1       
        34.1    1.25    0.00    1.72    36.5    4.98    0.00    0.920   
CAERO1  8338    1948    0       10      12                      1       
        36.5    4.98    0.00    1.53    37.2    6.22    0.00    1.09    
CAERO1  8458    1948    0       40      12                      1       
        35.8    1.25    0.00    1.15    37.4    4.98    0.00    0.613   
$.1.....2.......3.......4.......5.......6.......7.......8.......9.......10......
AESURF  1951    elevatR 1008    2290                    1.000   LDW     
$.1.....2.......3.......4.......5.......6.......7.......8.......9.......10......
PAERO1  1948            
$.1.....2.......3.......4.......5.......6.......7.......8.......9.......10......
SET1    2117    1434    1435    1444    1445    1454    1455    
SET1    2118    1436    1437    1438    1439    1440    1441    1446    
        1447    1448    1449    1450    1451    1456    1457    1458    
        1459    1460    1461    

SET1    2119    1442    1443    1452    1453    1462    1463    
SET1    2120    1436    1437    1438    1439    1440    1441    1446    
        1447    1448    1449    1450    1451    1456    1457    1458    
        1459    1460    1461    

$.1.....2.......3.......4.......5.......6.......7.......8.......9.......10......
AELIST  2287    7954    7955    7956    7957    7958    7959    7960    
        7961    7962    7963    7964    7965    7966    7967    7968    
        7969    7970    7971    7972    7973    7974    7975    7976    
        7977    7978    7979    7980    7981    7982    7983    7984    
        7985    7986    7987    7988    7989    7990    7991    7992    
        7993    7994    7995    7996    7997    7998    7999    8000    
        8001    8002    8003    8004    8005    8006    8007    8008    
        8009    8010    8011    8012    8013    

AELIST  2288    8014    8015    8016    8017    8018    8019    8020    
        8021    8022    8023    8024    8025    8026    8027    8028    
        8029    8030    8031    8032    8033    8034    8035    8036    
        8037    8038    8039    8040    8041    8042    8043    8044    
        8045    8046    8047    8048    8049    8050    8051    8052    
        8053    8054    8055    8056    8057    8058    8059    8060    
        8061    8062    8063    8064    8065    8066    8067    8068    
        8069    8070    8071    8072    8073    8074    8075    8076    
        8077    8078    8079    8080    8081    8082    8083    8084    
        8085    8086    8087    8088    8089    8090    8091    8092    
        8093    8094    8095    8096    8097    8098    8099    8100    
        8101    8102    8103    8104    8105    8106    8107    8108    
        8109    8110    8111    8112    8113    8114    8115    8116    
        8117    8118    8119    8120    8121    8122    8123    8124    
        8125    8126    8127    8128    8129    8130    8131    8132    
        8133    8134    8135    8136    8137    8138    8139    8140    
        8141    8142    8143    8144    8145    8146    8147    8148    
        8149    8150    8151    8152    8153    8154    8155    8156    
        8157    8158    8159    8160    8161    8162    8163    8164    
        8165    8166    8167    8168    8169    8170    8171    8172    
        8173    8174    8175    8176    8177    8178    8179    8180    
$ ... 20 like lines cut

AELIST  2289    8338    8339    8340    8341    8342    8343    8344    
        8345    8346    8347    8348    8349    8350    8351    8352    
        8353    8354    8355    8356    8357    8358    8359    8360    
        8361    8362    8363    8364    8365    8366    8367    8368    
        8369    8370    8371    8372    8373    8374    8375    8376    
        8377    8378    8379    8380    8381    8382    8383    8384    
        8385    8386    8387    8388    8389    8390    8391    8392    
        8393    8394    8395    8396    8397    8398    8399    8400    
        8401    8402    8403    8404    8405    8406    8407    8408    
        8409    8410    8411    8412    8413    8414    8415    8416    
        8417    8418    8419    8420    8421    8422    8423    8424    
        8425    8426    8427    8428    8429    8430    8431    8432    
        8433    8434    8435    8436    8437    8438    8439    8440    
        8441    8442    8443    8444    8445    8446    8447    8448    
        8449    8450    8451    8452    8453    8454    8455    8456    
        8457    

AELIST  2290    8458    8459    8460    8461    8462    8463    8464    
        8465    8466    8467    8468    8469    8470    8471    8472    
        8473    8474    8475    8476    8477    8478    8479    8480    
        8481    8482    8483    8484    8485    8486    8487    8488    
        8489    8490    8491    8492    8493    8494    8495    8496    
        8497    8498    8499    8500    8501    8502    8503    8504    
        8505    8506    8507    8508    8509    8510    8511    8512    
        8513    8514    8515    8516    8517    8518    8519    8520    
        8521    8522    8523    8524    8525    8526    8527    8528    
        8529    8530    8531    8532    8533    8534    8535    8536    
        8537    8538    8539    8540    8541    8542    8543    8544    
        8545    8546    8547    8548    8549    8550    8551    8552    
        8553    8554    8555    8556    8557    8558    8559    8560    
        8561    8562    8563    8564    8565    8566    8567    8568    
        8569    8570    8571    8572    8573    8574    8575    8576    
        8577    8578    8579    8580    8581    8582    8583    8584    
        8585    8586    8587    8588    8589    8590    8591    8592    
        8593    8594    8595    8596    8597    8598    8599    8600    
        8601    8602    8603    8604    8605    8606    8607    8608    
        8609    8610    8611    8612    8613    8614    8615    8616    
        8617    8618    8619    8620    8621    8622    8623    8624    
$ ... 40 like lines cut

$.1.....2.......3.......4.......5.......6.......7.......8.......9.......10......
SPLINE7 2457            2287            2117    0.00    1.00    1009    
                                BOTH    FBS6    0.00    1.00    0.0100  
SPLINE7 2458            2288            2118    0.00    1.00    1009    
                                BOTH    FBS6    0.00    1.00    0.0100  
SPLINE7 2459            2289            2119    0.00    1.00    1009    
                                BOTH    FBS6    0.00    1.00    0.0100  
SPLINE7 2460            2290            2120    0.00    1.00    1009    
                                BOTH    FBS6    0.00    1.00    0.0100  
$.1.....2.......3.......4.......5.......6.......7.......8.......9.......10......
CBUSH   2494    2501    1464    1465                            0       
$.1.....2.......3.......4.......5.......6.......7.......8.......9.......10......
RJOINT  2495    1075    1464    123456  
RJOINT  2496    1434    1465    123456  
