$ File information
$
$	- Created on  : 17-Mar-2021 20:55:06
$	- Created by  : hg174 (CHARLES-PC)
$	- Matlab ver  : 9.10.0.1602886 (R2021a)
$	- ALENA ver   : v0
$
$  Summary for component Vertical_wing:
$
$	* CoordSys        : 2       
$	* Nodes           : 32      
$	* Beams           : 9       
$	* BeamProps       : 9       
$	* BushProps       : 1       
$	* Materials       : 1       
$	* RigidBars       : 10      
$	* AeroPanels      : 1       
$	* AeroProps       : 1       
$	* StructuralSets  : 1       
$	* AeroSets        : 1       
$	* Splines         : 1       
$	* Connections     : 3       
$
$.1.....2...............3...............4...............5...............6.......
CORD2R* 1010            0               35.000000       0.0000000       
*       0.0000000       35.000000       -1.0000000      0.0000000       
*       35.450538       0.0000000       0.89275708      
CORD2R* 1011            0               35.000000       0.0000000       
*       0.0000000       35.000000       -1.0000000      0.0000000       
*       35.892757       0.0000000       -0.45053835     
$.1.....2...............3...............4...............5...............6.......
GRID*   1466            0               35.000000       0.0000000       
*       0.0000000       1010            
GRID*   1467            0               35.349056       0.0000000       
*       0.69166667      1010            
GRID*   1468            0               35.698112       0.0000000       
*       1.3833333       1010            
GRID*   1469            0               36.047168       0.0000000       
*       2.0750000       1010            
GRID*   1470            0               36.396225       0.0000000       
*       2.7666667       1010            
GRID*   1471            0               36.745281       0.0000000       
*       3.4583333       1010            
GRID*   1472            0               37.094337       0.0000000       
*       4.1500000       1010            
GRID*   1473            0               37.443393       0.0000000       
*       4.8416667       1010            
GRID*   1474            0               37.792449       0.0000000       
*       5.5333333       1010            
GRID*   1475            0               38.141505       0.0000000       
*       6.2250000       1010            
GRID*   1476            0               33.345000       0.0000000       
*       0.0000000       0               
GRID*   1477            0               33.794612       0.0000000       
*       0.69166667      0               
GRID*   1478            0               34.244223       0.0000000       
*       1.3833333       0               
GRID*   1479            0               34.693835       0.0000000       
*       2.0750000       0               
GRID*   1480            0               35.143447       0.0000000       
*       2.7666667       0               
GRID*   1481            0               35.593059       0.0000000       
*       3.4583333       0               
GRID*   1482            0               36.042670       0.0000000       
*       4.1500000       0               
GRID*   1483            0               36.492282       0.0000000       
*       4.8416667       0               
GRID*   1484            0               36.941894       0.0000000       
*       5.5333333       0               
GRID*   1485            0               37.391505       0.0000000       
*       6.2250000       0               
$ ... 24 like lines cut
$.1.....2.......3.......4.......5.......6.......7.......8.......9.......10......
CBEAM   1599    1819    1466    1467    0.00    1.00    0.00            
                        0.00    0.00    0.00    0.00    0.00    0.00    
CBEAM   1600    1820    1467    1468    0.00    1.00    0.00            
                        0.00    0.00    0.00    0.00    0.00    0.00    
CBEAM   1601    1821    1468    1469    0.00    1.00    0.00            
                        0.00    0.00    0.00    0.00    0.00    0.00    
CBEAM   1602    1822    1469    1470    0.00    1.00    0.00            
                        0.00    0.00    0.00    0.00    0.00    0.00    
CBEAM   1603    1823    1470    1471    0.00    1.00    0.00            
                        0.00    0.00    0.00    0.00    0.00    0.00    
CBEAM   1604    1824    1471    1472    0.00    1.00    0.00            
                        0.00    0.00    0.00    0.00    0.00    0.00    
CBEAM   1605    1825    1472    1473    0.00    1.00    0.00            
                        0.00    0.00    0.00    0.00    0.00    0.00    
CBEAM   1606    1826    1473    1474    0.00    1.00    0.00            
                        0.00    0.00    0.00    0.00    0.00    0.00    
CBEAM   1607    1827    1474    1475    0.00    1.00    0.00            
                        0.00    0.00    0.00    0.00    0.00    0.00    
$.1.....2...............3...............4...............5...............6.......
PBEAM*  1819            1831            0.0057920000    5.2089131e-05   
*       0.0038396877    0.0000000       0.00019026787   16.275520       
*       0.0000000       0.0000000       0.0000000       0.0000000       
*       0.0000000       0.0000000       0.0000000       0.0000000       
*       YES             1.0000000       0.0057920000    5.2089131e-05   
*       0.0038396877    0.0000000       0.00019026787   16.275520       
*       0.0000000       0.0000000       0.0000000       0.0000000       
*       0.0000000       0.0000000       0.0000000       0.0000000       
*       0.0000000       0.0000000       0.0000000       0.0000000       
*       10.935893       10.935893       0.0000000       0.0000000       
*       0.0000000       0.0000000       0.0000000       0.0000000       
*       0.0000000       0.0000000       0.0000000       0.0000000       
PBEAM*  1820            1831            0.0057920000    5.2089131e-05   
*       0.0038396877    0.0000000       0.00019026787   16.275520       
*       0.0000000       0.0000000       0.0000000       0.0000000       
*       0.0000000       0.0000000       0.0000000       0.0000000       
*       YES             1.0000000       0.0057920000    5.2089131e-05   
*       0.0038396877    0.0000000       0.00019026787   16.275520       
*       0.0000000       0.0000000       0.0000000       0.0000000       
*       0.0000000       0.0000000       0.0000000       0.0000000       
*       0.0000000       0.0000000       0.0000000       0.0000000       
*       10.935893       10.935893       0.0000000       0.0000000       
*       0.0000000       0.0000000       0.0000000       0.0000000       
*       0.0000000       0.0000000       0.0000000       0.0000000       
PBEAM*  1821            1831            0.0057920000    5.2089131e-05   
*       0.0038396877    0.0000000       0.00019026787   16.275520       
*       0.0000000       0.0000000       0.0000000       0.0000000       
*       0.0000000       0.0000000       0.0000000       0.0000000       
*       YES             1.0000000       0.0057920000    5.2089131e-05   
*       0.0038396877    0.0000000       0.00019026787   16.275520       
*       0.0000000       0.0000000       0.0000000       0.0000000       
*       0.0000000       0.0000000       0.0000000       0.0000000       
*       0.0000000       0.0000000       0.0000000       0.0000000       
*       10.935893       10.935893       0.0000000       0.0000000       
*       0.0000000       0.0000000       0.0000000       0.0000000       
*       0.0000000       0.0000000       0.0000000       0.0000000       
PBEAM*  1822            1831            0.0057920000    5.2089131e-05   
*       0.0038396877    0.0000000       0.00019026787   16.275520       
*       0.0000000       0.0000000       0.0000000       0.0000000       
*       0.0000000       0.0000000       0.0000000       0.0000000       
*       YES             1.0000000       0.0057920000    5.2089131e-05   
*       0.0038396877    0.0000000       0.00019026787   16.275520       
*       0.0000000       0.0000000       0.0000000       0.0000000       
*       0.0000000       0.0000000       0.0000000       0.0000000       
*       0.0000000       0.0000000       0.0000000       0.0000000       
*       10.935893       10.935893       0.0000000       0.0000000       
*       0.0000000       0.0000000       0.0000000       0.0000000       
*       0.0000000       0.0000000       0.0000000       0.0000000       
PBEAM*  1823            1831            0.0057920000    5.2089131e-05   
*       0.0038396877    0.0000000       0.00019026787   16.275520       
*       0.0000000       0.0000000       0.0000000       0.0000000       
*       0.0000000       0.0000000       0.0000000       0.0000000       
*       YES             1.0000000       0.0057920000    5.2089131e-05   
*       0.0038396877    0.0000000       0.00019026787   16.275520       
*       0.0000000       0.0000000       0.0000000       0.0000000       
*       0.0000000       0.0000000       0.0000000       0.0000000       
*       0.0000000       0.0000000       0.0000000       0.0000000       
*       10.935893       10.935893       0.0000000       0.0000000       
*       0.0000000       0.0000000       0.0000000       0.0000000       
*       0.0000000       0.0000000       0.0000000       0.0000000       
PBEAM*  1824            1831            0.0057920000    5.2089131e-05   
*       0.0038396877    0.0000000       0.00019026787   16.275520       
*       0.0000000       0.0000000       0.0000000       0.0000000       
*       0.0000000       0.0000000       0.0000000       0.0000000       
*       YES             1.0000000       0.0057920000    5.2089131e-05   
*       0.0038396877    0.0000000       0.00019026787   16.275520       
*       0.0000000       0.0000000       0.0000000       0.0000000       
*       0.0000000       0.0000000       0.0000000       0.0000000       
*       0.0000000       0.0000000       0.0000000       0.0000000       
*       10.935893       10.935893       0.0000000       0.0000000       
*       0.0000000       0.0000000       0.0000000       0.0000000       
*       0.0000000       0.0000000       0.0000000       0.0000000       
PBEAM*  1825            1831            0.0057920000    5.2089131e-05   
*       0.0038396877    0.0000000       0.00019026787   16.275520       
*       0.0000000       0.0000000       0.0000000       0.0000000       
*       0.0000000       0.0000000       0.0000000       0.0000000       
*       YES             1.0000000       0.0057920000    5.2089131e-05   
*       0.0038396877    0.0000000       0.00019026787   16.275520       
*       0.0000000       0.0000000       0.0000000       0.0000000       
*       0.0000000       0.0000000       0.0000000       0.0000000       
*       0.0000000       0.0000000       0.0000000       0.0000000       
*       10.935893       10.935893       0.0000000       0.0000000       
*       0.0000000       0.0000000       0.0000000       0.0000000       
*       0.0000000       0.0000000       0.0000000       0.0000000       
PBEAM*  1826            1831            0.0057920000    5.2089131e-05   
*       0.0038396877    0.0000000       0.00019026787   16.275520       
*       0.0000000       0.0000000       0.0000000       0.0000000       
*       0.0000000       0.0000000       0.0000000       0.0000000       
*       YES             1.0000000       0.0057920000    5.2089131e-05   
*       0.0038396877    0.0000000       0.00019026787   16.275520       
*       0.0000000       0.0000000       0.0000000       0.0000000       
*       0.0000000       0.0000000       0.0000000       0.0000000       
*       0.0000000       0.0000000       0.0000000       0.0000000       
*       10.935893       10.935893       0.0000000       0.0000000       
*       0.0000000       0.0000000       0.0000000       0.0000000       
*       0.0000000       0.0000000       0.0000000       0.0000000       
PBEAM*  1827            1831            0.0057920000    5.2089131e-05   
*       0.0038396877    0.0000000       0.00019026787   16.275520       
*       0.0000000       0.0000000       0.0000000       0.0000000       
*       0.0000000       0.0000000       0.0000000       0.0000000       
*       YES             1.0000000       0.0057920000    5.2089131e-05   
*       0.0038396877    0.0000000       0.00019026787   16.275520       
*       0.0000000       0.0000000       0.0000000       0.0000000       
*       0.0000000       0.0000000       0.0000000       0.0000000       
*       0.0000000       0.0000000       0.0000000       0.0000000       
*       10.935893       10.935893       0.0000000       0.0000000       
*       0.0000000       0.0000000       0.0000000       0.0000000       
*       0.0000000       0.0000000       0.0000000       0.0000000       
$.1.....2...............3...............4...............5...............6.......
PBUSH*  2502            K               1.0000e+11      1.0000e+11      
*       1.0000e+11      1.0000e+11      1.0000e+11      1.0000e+11      
$.1.....2...............3...............4...............5...............6.......
MAT1*   1831            7.6000000e+10   2.8507127e+10   0.33300000      
*       0.0000000       
$.1.....2.......3.......4.......5.......6.......7.......8.......9.......10......
RBE2    1936    1466    123456  1476    1486    
RBE2    1937    1467    123456  1477    1487    
RBE2    1938    1468    123456  1478    1488    
RBE2    1939    1469    123456  1479    1489    
RBE2    1940    1470    123456  1480    1490    
RBE2    1941    1471    123456  1481    1491    
RBE2    1942    1472    123456  1482    1492    
RBE2    1943    1473    123456  1483    1493    
RBE2    1944    1474    123456  1484    1494    
RBE2    1945    1475    123456  1485    1495    
$.1.....2.......3.......4.......5.......6.......7.......8.......9.......10......
CAERO1  8938    1949    0       16      8                       1       
        33.3    0.00    0.00    3.31    37.4    0.00    6.22    1.50    
$.1.....2.......3.......4.......5.......6.......7.......8.......9.......10......
PAERO1  1949            
$.1.....2.......3.......4.......5.......6.......7.......8.......9.......10......
SET1    2121    1466    1467    1468    1469    1470    1471    1472    
        1473    1474    1475    1476    1477    1478    1479    1480    
        1481    1482    1483    1484    1485    1486    1487    1488    
        1489    1490    1491    1492    1493    1494    1495    

$.1.....2.......3.......4.......5.......6.......7.......8.......9.......10......
AELIST  2291    8938    8939    8940    8941    8942    8943    8944    
        8945    8946    8947    8948    8949    8950    8951    8952    
        8953    8954    8955    8956    8957    8958    8959    8960    
        8961    8962    8963    8964    8965    8966    8967    8968    
        8969    8970    8971    8972    8973    8974    8975    8976    
        8977    8978    8979    8980    8981    8982    8983    8984    
        8985    8986    8987    8988    8989    8990    8991    8992    
        8993    8994    8995    8996    8997    8998    8999    9000    
        9001    9002    9003    9004    9005    9006    9007    9008    
        9009    9010    9011    9012    9013    9014    9015    9016    
        9017    9018    9019    9020    9021    9022    9023    9024    
        9025    9026    9027    9028    9029    9030    9031    9032    
        9033    9034    9035    9036    9037    9038    9039    9040    
        9041    9042    9043    9044    9045    9046    9047    9048    
        9049    9050    9051    9052    9053    9054    9055    9056    
        9057    9058    9059    9060    9061    9062    9063    9064    
        9065    

$.1.....2.......3.......4.......5.......6.......7.......8.......9.......10......
SPLINE7 2461            2291            2121    0.00    1.00    1011    
                                BOTH    FBS6    0.00    1.00    0.0100  
$.1.....2.......3.......4.......5.......6.......7.......8.......9.......10......
CBUSH   2497    2502    1496    1497                            0       
$.1.....2.......3.......4.......5.......6.......7.......8.......9.......10......
RJOINT  2498    1075    1496    123456  
RJOINT  2499    1466    1497    123456  
